@<TRIPOS>MOLECULE
ZINC00658631
   52    54     0     0     0
SMALL
USER_CHARGES
2-[4-(2-amino-3-cyano-7,7-dimethyl-5-oxo-6,8-dihydro-4H-chromen-4-yl)-2-methoxy-phenoxy]acetamide
@<TRIPOS>ATOM
      1 C1          2.1725    7.5592    3.0922 C.3       1 <0>        -0.1571
      2 C2          2.9610    8.2456    1.9750 C.3       1 <0>        -0.0555
      3 C3          2.0139    9.0928    1.1231 C.3       1 <0>        -0.0721
      4 C4          0.9661    8.2054    0.4930 C.2       1 <0>         0.1683
      5 C5          1.2507    6.9308    0.1686 C.2       1 <0>        -0.2592
      6 C6          0.2065    6.0503   -0.4743 C.3       1 <0>         0.0958
      7 H1          0.6672    5.4655   -1.2704 H         1 <0>         0.0988
      8 C7         -0.8954    6.8936   -1.0523 C.2       1 <0>        -0.2588
      9 C8         -1.0596    8.1772   -0.6498 C.2       1 <0>         0.4245
     10 O1         -0.2542    8.7290    0.2711 O.3       1 <0>        -0.2383
     11 N1         -2.0705    8.9287   -1.1956 N.pl3     1 <0>        -0.8297
     12 C9         -1.7768    6.3374   -2.0343 C.1       1 <0>         0.2707
     13 N2         -2.4761    5.8961   -2.8133 N.1       1 <0>        -0.4370
     14 C10        -0.3682    5.1187    0.5616 C.ar      1 <0>        -0.0662
     15 C11        -1.0027    5.6341    1.6765 C.ar      1 <0>        -0.1041
     16 C12        -1.5319    4.7836    2.6293 C.ar      1 <0>        -0.1731
     17 C13        -1.4266    3.4114    2.4683 C.ar      1 <0>         0.0966
     18 C14        -0.7875    2.8927    1.3463 C.ar      1 <0>         0.1085
     19 C15        -0.2542    3.7507    0.3979 C.ar      1 <0>        -0.1509
     20 O2         -0.6816    1.5467    1.1837 O.3       1 <0>        -0.3025
     21 C16        -0.0127    1.0858    0.0080 C.3       1 <0>         0.0249
     22 O3         -1.9462    2.5735    3.4049 O.3       1 <0>        -0.2785
     23 C17        -2.5882    3.1765    4.5302 C.3       1 <0>         0.0385
     24 C18        -3.0980    2.1004    5.4539 C.2       1 <0>         0.5184
     25 O4         -2.9283    0.9321    5.1759 O.2       1 <0>        -0.5129
     26 N3         -3.7425    2.4363    6.5889 N.am      1 <0>        -0.8515
     27 C19         2.5218    6.3785    0.4179 C.2       1 <0>         0.4046
     28 O5          2.7459    5.2287    0.0966 O.2       1 <0>        -0.4475
     29 C20         3.6073    7.1867    1.0753 C.3       1 <0>        -0.1517
     30 C21         4.0467    9.1352    2.5837 C.3       1 <0>        -0.1420
     31 H2          2.8465    6.9421    3.6863 H         1 <0>         0.0651
     32 H3          1.7140    8.3146    3.7303 H         1 <0>         0.0652
     33 H4          1.3953    6.9318    2.6558 H         1 <0>         0.0629
     34 H5          1.5274    9.8374    1.7531 H         1 <0>         0.1035
     35 H6          2.5819    9.5959    0.3405 H         1 <0>         0.1092
     36 H7         -2.1969    9.8486   -0.9148 H         1 <0>         0.4118
     37 H8         -2.6585    8.5399   -1.8619 H         1 <0>         0.4266
     38 H9         -1.0855    6.7034    1.8032 H         1 <0>         0.1197
     39 H10        -2.0278    5.1888    3.4990 H         1 <0>         0.1336
     40 H11         0.2466    3.3507   -0.4714 H         1 <0>         0.1370
     41 H12         0.0021   -0.0041    0.0020 H         1 <0>         0.1016
     42 H13         1.0099    1.4631    0.0003 H         1 <0>         0.0578
     43 H14        -0.5399    1.4469   -0.8751 H         1 <0>         0.0541
     44 H15        -1.8737    3.8041    5.0628 H         1 <0>         0.0933
     45 H16        -3.4236    3.7872    4.1878 H         1 <0>         0.0929
     46 H17        -3.8782    3.3707    6.8112 H         1 <0>         0.4027
     47 H18        -4.0706    1.7437    7.1835 H         1 <0>         0.4095
     48 H19         4.1880    6.5891    1.6281 H         1 <0>         0.0924
     49 H20         4.2117    7.6761    0.3115 H         1 <0>         0.1056
     50 H21         4.6020    9.6284    1.7858 H         1 <0>         0.0628
     51 H22         3.5841    9.8872    3.2229 H         1 <0>         0.0650
     52 H23         4.7275    8.5239    3.1760 H         1 <0>         0.0668
@<TRIPOS>BOND
     1    1    2 1
     2    1   31 1
     3    1   32 1
     4    1   33 1
     5    2   29 1
     6    2    3 1
     7    2   30 1
     8    3    4 1
     9    3   34 1
    10    3   35 1
    11    4   10 1
    12    4    5 2
    13    5    6 1
    14    5   27 1
    15    6    7 1
    16    6    8 1
    17    6   14 1
    18    8    9 2
    19    8   12 1
    20    9   10 1
    21    9   11 1
    22   11   36 1
    23   11   37 1
    24   12   13 3
    25   14   19 ar
    26   14   15 ar
    27   15   16 ar
    28   15   38 1
    29   16   17 ar
    30   16   39 1
    31   17   18 ar
    32   17   22 1
    33   18   19 ar
    34   18   20 1
    35   19   40 1
    36   20   21 1
    37   21   41 1
    38   21   42 1
    39   21   43 1
    40   22   23 1
    41   23   24 1
    42   23   44 1
    43   23   45 1
    44   24   25 2
    45   24   26 am
    46   26   46 1
    47   26   47 1
    48   27   28 2
    49   27   29 1
    50   29   48 1
    51   29   49 1
    52   30   50 1
    53   30   51 1
    54   30   52 1
@<TRIPOS>MOLECULE
ZINC12975057
   50    52     0     0     0
SMALL
USER_CHARGES
3-(benzylcarbamoylamino)-N-[(2R)-2-methyl-3-oxo-4H-1,4-benzoxazin-6-yl]propanamide
@<TRIPOS>ATOM
      1 C1          2.8471  -12.4532    0.1495 C.3       1 <0>        -0.1360
      2 C2          2.6622  -10.9536    0.3904 C.3       1 <0>         0.0777
      3 H1          2.2215  -10.7959    1.3748 H         1 <0>         0.1058
      4 C3          1.7487  -10.3846   -0.6653 C.2       1 <0>         0.4933
      5 O1          0.9035  -11.0853   -1.1810 O.2       1 <0>        -0.5020
      6 N1          1.8755   -9.0916   -1.0348 N.am      1 <0>        -0.6589
      7 C4          2.8837   -8.3127   -0.4491 C.ar      1 <0>         0.1126
      8 C5          2.8575   -6.9321   -0.5487 C.ar      1 <0>        -0.1252
      9 C6          3.8662   -6.1793    0.0377 C.ar      1 <0>         0.1521
     10 C7          4.9001   -6.8108    0.7164 C.ar      1 <0>        -0.1325
     11 C8          4.9231   -8.1891    0.8210 C.ar      1 <0>        -0.0864
     12 C9          3.9199   -8.9435    0.2379 C.ar      1 <0>         0.0655
     13 O2          3.9331  -10.3012    0.3284 O.3       1 <0>        -0.2992
     14 N2          3.8439   -4.7819   -0.0603 N.am      1 <0>        -0.6710
     15 C10         2.6679   -4.1239   -0.0437 C.2       1 <0>         0.5191
     16 O3          1.6258   -4.7445   -0.0285 O.2       1 <0>        -0.5108
     17 C11         2.6475   -2.6170   -0.0441 C.3       1 <0>        -0.1521
     18 C12         1.1984   -2.1265   -0.0235 C.3       1 <0>         0.1525
     19 N3          1.1786   -0.6617   -0.0238 N.am      1 <0>        -0.7489
     20 C13         0.0025   -0.0036   -0.0072 C.2       1 <0>         0.7042
     21 O4         -1.0420   -0.6257    0.0080 O.2       1 <0>        -0.5836
     22 N4         -0.0157    1.3440   -0.0076 N.am      1 <0>        -0.7419
     23 C14        -1.2942    2.0593    0.0044 C.3       1 <0>         0.1801
     24 C15        -1.0389    3.5445    0.0014 C.ar      1 <0>        -0.1115
     25 C16        -0.9160    4.2271    1.1972 C.ar      1 <0>        -0.0997
     26 C17        -0.6770    5.5886    1.1944 C.ar      1 <0>        -0.1220
     27 C18        -0.5708    6.2693   -0.0040 C.ar      1 <0>        -0.1108
     28 C19        -0.6994    5.5877   -1.1998 C.ar      1 <0>        -0.1220
     29 C20        -0.9332    4.2253   -1.1970 C.ar      1 <0>        -0.0999
     30 H2          3.2867  -12.6114   -0.8353 H         1 <0>         0.0715
     31 H3          3.5076  -12.8650    0.9126 H         1 <0>         0.0819
     32 H4          1.8790  -12.9513    0.1995 H         1 <0>         0.0928
     33 H5          1.2778   -8.7075   -1.6953 H         1 <0>         0.4176
     34 H6          2.0551   -6.4422   -1.0804 H         1 <0>         0.1509
     35 H7          5.6859   -6.2233    1.1679 H         1 <0>         0.1393
     36 H8          5.7262   -8.6772    1.3532 H         1 <0>         0.1462
     37 H9          4.6750   -4.2880   -0.1401 H         1 <0>         0.4155
     38 H10         3.1436   -2.2471   -0.9414 H         1 <0>         0.1065
     39 H11         3.1691   -2.2464    0.8384 H         1 <0>         0.1071
     40 H12         0.7023   -2.4964    0.8738 H         1 <0>         0.0776
     41 H13         0.6768   -2.4971   -0.9059 H         1 <0>         0.0773
     42 H14         2.0119   -0.1654   -0.0360 H         1 <0>         0.3959
     43 H15         0.8176    1.8403   -0.0197 H         1 <0>         0.3971
     44 H16        -1.8706    1.7880   -0.8800 H         1 <0>         0.0760
     45 H17        -1.8536    1.7886    0.8998 H         1 <0>         0.0764
     46 H18        -1.0030    3.6960    2.1336 H         1 <0>         0.1244
     47 H19        -0.5769    6.1212    2.1287 H         1 <0>         0.1248
     48 H20        -0.3878    7.3337   -0.0061 H         1 <0>         0.1239
     49 H21        -0.6168    6.1196   -2.1361 H         1 <0>         0.1248
     50 H22        -1.0336    3.6928   -2.1312 H         1 <0>         0.1243
@<TRIPOS>BOND
     1    1    2 1
     2    1   30 1
     3    1   31 1
     4    1   32 1
     5    2    3 1
     6    2   13 1
     7    2    4 1
     8    4    5 2
     9    4    6 am
    10    6    7 1
    11    6   33 1
    12    7   12 ar
    13    7    8 ar
    14    8    9 ar
    15    8   34 1
    16    9   10 ar
    17    9   14 1
    18   10   11 ar
    19   10   35 1
    20   11   12 ar
    21   11   36 1
    22   12   13 1
    23   14   15 am
    24   14   37 1
    25   15   16 2
    26   15   17 1
    27   17   18 1
    28   17   38 1
    29   17   39 1
    30   18   19 1
    31   18   40 1
    32   18   41 1
    33   19   20 am
    34   19   42 1
    35   20   21 2
    36   20   22 am
    37   22   23 1
    38   22   43 1
    39   23   24 1
    40   23   44 1
    41   23   45 1
    42   24   29 ar
    43   24   25 ar
    44   25   26 ar
    45   25   46 1
    46   26   27 ar
    47   26   47 1
    48   27   28 ar
    49   27   48 1
    50   28   29 ar
    51   28   49 1
    52   29   50 1
@<TRIPOS>MOLECULE
ZINC04971895
   44    46     0     0     0
SMALL
USER_CHARGES

@<TRIPOS>ATOM
      1 C1         -1.2634    1.1895   -0.1463 C.3       1 <0>        -0.1220
      2 C2         -0.5831   -0.1532   -0.0727 C.ar      1 <0>        -0.1049
      3 C3          0.0167   -0.6917   -1.2035 C.ar      1 <0>         0.1559
      4 C4          0.6425   -1.9292   -1.1317 C.ar      1 <0>        -0.1217
      5 C5          0.6671   -2.6213    0.0635 C.ar      1 <0>        -0.0901
      6 C6          0.0691   -2.0838    1.1880 C.ar      1 <0>        -0.1198
      7 C7         -0.5504   -0.8477    1.1218 C.ar      1 <0>        -0.0176
      8 Cl1        -1.2930   -0.1726    2.5383 Cl        1 <0>        -0.0590
      9 N1         -0.0099    0.0112   -2.4131 N.am      1 <0>        -0.6617
     10 C8          0.0954   -0.6531   -3.5810 C.2       1 <0>         0.4935
     11 O1          0.1123   -1.8659   -3.5895 O.2       1 <0>        -0.4874
     12 C9          0.1920    0.1108   -4.8764 C.3       1 <0>         0.1118
     13 N2          0.2967   -0.8321   -5.9928 N.pl3     1 <0>        -0.3957
     14 C10         1.4380   -1.3406   -6.5142 C.2       1 <0>         0.4226
     15 C11         1.0546   -2.1845   -7.5489 C.2       1 <0>        -0.1801
     16 N3         -0.2893   -2.1653   -7.6259 N.2       1 <0>        -0.1680
     17 N4         -0.7655   -1.3846   -6.7209 N.2       1 <0>        -0.0599
     18 C12         1.9569   -2.9608   -8.4081 C.2       1 <0>         0.6211
     19 O2          3.1606   -2.8961   -8.2421 O.2       1 <0>        -0.5544
     20 N5          1.4520   -3.7453   -9.3808 N.am      1 <0>        -0.7138
     21 C13         2.3524   -4.5201  -10.2383 C.3       1 <0>         0.2096
     22 C14         1.5424   -5.3068  -11.2362 C.2       1 <0>        -0.1760
     23 C15         1.1381   -4.9487  -12.4795 C.2       1 <0>        -0.1297
     24 C16         0.3947   -5.8432  -13.2263 C.2       1 <0>        -0.1636
     25 C17         0.0918   -7.0522  -12.6933 C.2       1 <0>        -0.1629
     26 S1          0.8729   -6.9554  -11.0909 S.3       1 <0>         0.0541
     27 N6          2.7267   -1.0735   -6.1000 N.pl3     1 <0>        -0.8128
     28 H1         -0.5424    1.9750    0.0802 H         1 <0>         0.0787
     29 H2         -1.6618    1.3404   -1.1496 H         1 <0>         0.0676
     30 H3         -2.0779    1.2243    0.5771 H         1 <0>         0.0816
     31 H4          1.1095   -2.3503   -2.0097 H         1 <0>         0.1489
     32 H5          1.1538   -3.5838    0.1194 H         1 <0>         0.1375
     33 H6          0.0894   -2.6272    2.1211 H         1 <0>         0.1367
     34 H7         -0.1041    0.9766   -2.4111 H         1 <0>         0.4157
     35 H8         -0.6989    0.7260   -5.0028 H         1 <0>         0.1448
     36 H9          1.0748    0.7498   -4.8564 H         1 <0>         0.1290
     37 H10         0.4925   -3.7969   -9.5131 H         1 <0>         0.4122
     38 H11         3.0225   -3.8426  -10.7675 H         1 <0>         0.0938
     39 H12         2.9382   -5.2049   -9.6251 H         1 <0>         0.0860
     40 H13         1.3928   -3.9787  -12.8804 H         1 <0>         0.1358
     41 H14         0.0598   -5.5826  -14.2194 H         1 <0>         0.1363
     42 H15        -0.4721   -7.8647  -13.1271 H         1 <0>         0.1876
     43 H16         2.8823   -0.4639   -5.3616 H         1 <0>         0.4031
     44 H17         3.4771   -1.4953   -6.5471 H         1 <0>         0.4371
@<TRIPOS>BOND
     1    1    2 1
     2    1   28 1
     3    1   29 1
     4    1   30 1
     5    2    7 ar
     6    2    3 ar
     7    3    4 ar
     8    3    9 1
     9    4    5 ar
    10    4   31 1
    11    5    6 ar
    12    5   32 1
    13    6    7 ar
    14    6   33 1
    15    7    8 1
    16    9   10 am
    17    9   34 1
    18   10   11 2
    19   10   12 1
    20   12   13 1
    21   12   35 1
    22   12   36 1
    23   13   17 1
    24   13   14 1
    25   14   15 2
    26   14   27 1
    27   15   16 1
    28   15   18 1
    29   16   17 2
    30   18   19 2
    31   18   20 am
    32   20   21 1
    33   20   37 1
    34   21   22 1
    35   21   38 1
    36   21   39 1
    37   22   26 1
    38   22   23 2
    39   23   24 1
    40   23   40 1
    41   24   25 2
    42   24   41 1
    43   25   26 1
    44   25   42 1
    45   27   43 1
    46   27   44 1
@<TRIPOS>MOLECULE
ZINC50510717
   43    46     0     0     0
SMALL
USER_CHARGES

@<TRIPOS>ATOM
      1 C1         -0.0167    1.3784    0.0096 C.ar      1 <0>        -0.1567
      2 C2          1.1698    2.0883    0.0021 C.ar      1 <0>        -0.0800
      3 C3          2.3773    1.4175   -0.0134 C.ar      1 <0>        -0.1487
      4 C4          2.3989    0.0304   -0.0210 C.ar      1 <0>         0.1305
      5 C5          1.2070   -0.6796   -0.0130 C.ar      1 <0>        -0.2064
      6 C6          0.0021   -0.0041    0.0020 C.ar      1 <0>        -0.0793
      7 O1          3.5855   -0.6319   -0.0368 O.3       1 <0>        -0.3087
      8 C7          3.5315   -2.0598   -0.0438 C.3       1 <0>         0.1376
      9 C8          4.9322   -2.6155   -0.0612 C.2       1 <0>         0.2847
     10 N1          5.6161   -2.8794   -1.1362 N.2       1 <0>        -0.4632
     11 C9          6.8364   -3.3659   -0.7928 C.ar      1 <0>         0.0432
     12 C10         7.9425   -3.8001   -1.5282 C.ar      1 <0>        -0.0617
     13 C11         9.0581   -4.2476   -0.8793 C.ar      1 <0>        -0.1264
     14 C12         9.1066   -4.2770    0.5073 C.ar      1 <0>        -0.0981
     15 C13         8.0274   -3.8535    1.2532 C.ar      1 <0>        -0.1016
     16 C14         6.8851   -3.3950    0.6111 C.ar      1 <0>         0.0610
     17 N2          5.6680   -2.9087    1.0447 N.pl3     1 <0>        -0.4736
     18 C15         5.2459   -2.7425    2.4377 C.3       1 <0>         0.1818
     19 C16         4.5774   -4.0063    2.9142 C.ar      1 <0>         0.4098
     20 N3          3.2735   -4.1594    2.7629 N.ar      1 <0>        -0.6282
     21 C17         2.6795   -5.2744    3.1821 C.ar      1 <0>         0.6358
     22 N4          3.3992   -6.2340    3.7533 N.ar      1 <0>        -0.6496
     23 C18         4.7098   -6.0764    3.9036 C.ar      1 <0>         0.6355
     24 N5          5.2974   -4.9606    3.4773 N.ar      1 <0>        -0.6200
     25 N6          5.4617   -7.0702    4.4962 N.pl3     1 <0>        -0.8012
     26 N7          1.3179   -5.4333    3.0241 N.pl3     1 <0>        -0.8021
     27 H1         -0.9596    1.9047    0.0260 H         1 <0>         0.1242
     28 H2          1.1525    3.1682    0.0080 H         1 <0>         0.1301
     29 H3          3.3038    1.9724   -0.0200 H         1 <0>         0.1309
     30 H4          1.2211   -1.7595   -0.0193 H         1 <0>         0.1280
     31 H5         -0.9260   -0.5563    0.0082 H         1 <0>         0.1254
     32 H6          3.0134   -2.4083    0.8497 H         1 <0>         0.0984
     33 H7          2.9951   -2.3988   -0.9302 H         1 <0>         0.0979
     34 H8          7.9152   -3.7822   -2.6077 H         1 <0>         0.1305
     35 H9          9.9109   -4.5824   -1.4512 H         1 <0>         0.1309
     36 H10         9.9958   -4.6343    1.0054 H         1 <0>         0.1317
     37 H11         8.0705   -3.8781    2.3321 H         1 <0>         0.1282
     38 H12         6.1171   -2.5358    3.0592 H         1 <0>         0.1253
     39 H13         4.5440   -1.9115    2.5080 H         1 <0>         0.1256
     40 H14         5.0334   -7.8846    4.8033 H         1 <0>         0.4190
     41 H15         6.4185   -6.9544    4.6057 H         1 <0>         0.4204
     42 H16         0.7930   -4.7321    2.6073 H         1 <0>         0.4196
     43 H17         0.8857   -6.2461    3.3298 H         1 <0>         0.4193
@<TRIPOS>BOND
     1    1    6 ar
     2    1    2 ar
     3    1   27 1
     4    2    3 ar
     5    2   28 1
     6    3    4 ar
     7    3   29 1
     8    4    5 ar
     9    4    7 1
    10    5    6 ar
    11    5   30 1
    12    6   31 1
    13    7    8 1
    14    8    9 1
    15    8   32 1
    16    8   33 1
    17    9   17 1
    18    9   10 2
    19   10   11 1
    20   11   16 ar
    21   11   12 ar
    22   12   13 ar
    23   12   34 1
    24   13   14 ar
    25   13   35 1
    26   14   15 ar
    27   14   36 1
    28   15   16 ar
    29   15   37 1
    30   16   17 1
    31   17   18 1
    32   18   19 1
    33   18   38 1
    34   18   39 1
    35   19   24 ar
    36   19   20 ar
    37   20   21 ar
    38   21   22 ar
    39   21   26 1
    40   22   23 ar
    41   23   24 ar
    42   23   25 1
    43   25   40 1
    44   25   41 1
    45   26   42 1
    46   26   43 1
@<TRIPOS>MOLECULE
ZINC59264059
   41    43     0     0     0
SMALL
USER_CHARGES

@<TRIPOS>ATOM
      1 C1         -0.0178    1.3753   -0.0062 C.ar      1 <0>        -0.1346
      2 C2          1.1681    2.0891   -0.0139 C.ar      1 <0>        -0.0843
      3 C3          2.3815    1.4274   -0.0276 C.ar      1 <0>        -0.1506
      4 C4          2.4173    0.0426   -0.0337 C.ar      1 <0>         0.1536
      5 C5          1.2199   -0.6832   -0.0259 C.ar      1 <0>        -0.0564
      6 C6          0.0010   -0.0041   -0.0120 C.ar      1 <0>        -0.0792
      7 C7          1.2469   -2.1606   -0.0327 C.2       1 <0>         0.2628
      8 N1          2.3168   -2.9216   -0.0403 N.2       1 <0>        -0.2465
      9 N2          1.9744   -4.1602   -0.0446 N.2       1 <0>        -0.2703
     10 C8          0.6648   -4.2665   -0.0401 C.2       1 <0>         0.1243
     11 N3          0.1557   -2.9986   -0.0264 N.pl3     1 <0>        -0.3049
     12 N4         -1.1618   -2.6381   -0.0126 N.3       1 <0>        -0.5809
     13 S1         -0.2622   -5.7649   -0.0443 S.3       1 <0>        -0.0132
     14 C9          1.0038   -7.0641   -0.0551 C.3       1 <0>        -0.0799
     15 C10         0.3266   -8.4361   -0.0595 C.3       1 <0>        -0.1259
     16 C11         1.3783   -9.5154   -0.0685 C.2       1 <0>         0.5098
     17 O1          2.5537   -9.2167   -0.0712 O.2       1 <0>        -0.4589
     18 N5          1.0126  -10.8126   -0.0736 N.am      1 <0>        -0.6625
     19 C12         1.9806  -11.8091   -0.1889 C.ar      1 <0>         0.3570
     20 C13         1.5902  -13.1390   -0.3000 C.ar      1 <0>        -0.2070
     21 C14         2.5611  -14.1181   -0.4138 C.ar      1 <0>        -0.0477
     22 C15         3.8947  -13.7318   -0.4125 C.ar      1 <0>        -0.2030
     23 C16         4.2103  -12.3924   -0.2986 C.ar      1 <0>         0.1328
     24 N6          3.2625  -11.4803   -0.1970 N.ar      1 <0>        -0.4781
     25 O2          3.6093   -0.6086   -0.0476 O.3       1 <0>        -0.4777
     26 H1         -0.9615    1.9002    0.0091 H         1 <0>         0.1317
     27 H2          1.1451    3.1689   -0.0096 H         1 <0>         0.1317
     28 H3          3.3029    1.9907   -0.0340 H         1 <0>         0.1371
     29 H4         -0.9264   -0.5576   -0.0055 H         1 <0>         0.1494
     30 H5         -1.5192   -2.5385   -0.9509 H         1 <0>         0.3683
     31 H6         -1.7119   -3.2987    0.5157 H         1 <0>         0.3780
     32 H7          1.6222   -6.9613   -0.9468 H         1 <0>         0.1091
     33 H8          1.6284   -6.9701    0.8332 H         1 <0>         0.1095
     34 H9         -0.2919   -8.5388    0.8321 H         1 <0>         0.1098
     35 H10        -0.2981   -8.5301   -0.9478 H         1 <0>         0.1099
     36 H11         0.0759  -11.0527    0.0029 H         1 <0>         0.4187
     37 H12         0.5432  -13.4041   -0.2972 H         1 <0>         0.1364
     38 H13         2.2879  -15.1593   -0.5012 H         1 <0>         0.1390
     39 H14         4.6770  -14.4712   -0.4993 H         1 <0>         0.1372
     40 H15         5.2463  -12.0872   -0.2968 H         1 <0>         0.1604
     41 H16         3.9628   -0.8008    0.8317 H         1 <0>         0.3954
@<TRIPOS>BOND
     1    1    6 ar
     2    1    2 ar
     3    1   26 1
     4    2    3 ar
     5    2   27 1
     6    3    4 ar
     7    3   28 1
     8    4    5 ar
     9    4   25 1
    10    5    6 ar
    11    5    7 1
    12    6   29 1
    13    7   11 1
    14    7    8 2
    15    8    9 1
    16    9   10 2
    17   10   11 1
    18   10   13 1
    19   11   12 1
    20   12   30 1
    21   12   31 1
    22   13   14 1
    23   14   15 1
    24   14   32 1
    25   14   33 1
    26   15   16 1
    27   15   34 1
    28   15   35 1
    29   16   17 2
    30   16   18 am
    31   18   19 1
    32   18   36 1
    33   19   24 ar
    34   19   20 ar
    35   20   21 ar
    36   20   37 1
    37   21   22 ar
    38   21   38 1
    39   22   23 ar
    40   22   39 1
    41   23   24 ar
    42   23   40 1
    43   25   41 1
@<TRIPOS>MOLECULE
ZINC67313355
   47    48     0     0     0
SMALL
USER_CHARGES

@<TRIPOS>ATOM
      1 C1         -0.0187    1.5258    0.0104 C.3       1 <0>        -0.1529
      2 C2          0.0021   -0.0041    0.0020 C.3       1 <0>         0.0576
      3 O1          0.6709   -0.4649   -1.1737 O.3       1 <0>        -0.3905
      4 C3          0.7457   -1.8880   -1.2798 C.3       1 <0>         0.0655
      5 C4          1.4779   -2.2655   -2.5691 C.3       1 <0>        -0.1320
      6 C5          1.5580   -3.7892   -2.6827 C.3       1 <0>         0.1374
      7 N1          2.2590   -4.1507   -3.9172 N.am      1 <0>        -0.7426
      8 C6          2.4488   -5.4480   -4.2292 C.2       1 <0>         0.7150
      9 O2          2.0382   -6.3184   -3.4861 O.2       1 <0>        -0.5624
     10 N2          3.0938   -5.7806   -5.3650 N.am      1 <0>        -0.5287
     11 N3          3.5669   -4.7777   -6.2212 N.am      1 <0>        -0.5237
     12 C7          4.2119   -5.1103   -7.3569 C.2       1 <0>         0.5627
     13 O3          4.3831   -6.2808   -7.6385 O.2       1 <0>        -0.5165
     14 C8          4.7099   -4.0545   -8.2583 C.ar      1 <0>        -0.0868
     15 C9          4.5179   -2.7088   -7.9316 C.ar      1 <0>        -0.0987
     16 C10         4.9814   -1.7204   -8.7722 C.ar      1 <0>        -0.0518
     17 C11         5.6405   -2.0637   -9.9460 C.ar      1 <0>        -0.1064
     18 C12         5.8372   -3.4060  -10.2781 C.ar      1 <0>         0.1706
     19 C13         5.3794   -4.4000   -9.4373 C.ar      1 <0>        -0.0691
     20 N4          6.5101   -3.7302  -11.4668 N.am      1 <0>        -0.6694
     21 C14         7.6911   -3.1674  -11.7504 C.2       1 <0>         0.5323
     22 O4          8.1649   -3.3052  -12.8585 O.2       1 <0>        -0.5141
     23 C15         8.4400   -2.3702  -10.7240 C.3       1 <0>        -0.1519
     24 C16         8.0465   -0.8852  -10.8043 C.3       1 <0>        -0.0892
     25 S1          6.2380   -0.8120  -11.0362 S.3       1 <0>        -0.1295
     26 H1          1.0039    1.9031    0.0027 H         1 <0>         0.0632
     27 H2         -0.5459    1.8868   -0.8726 H         1 <0>         0.0633
     28 H3         -0.5289    1.8773    0.9072 H         1 <0>         0.0725
     29 H4          0.5293   -0.3651    0.8851 H         1 <0>         0.0498
     30 H5         -1.0205   -0.3814    0.0098 H         1 <0>         0.0498
     31 H6          1.2883   -2.2882   -0.4233 H         1 <0>         0.0543
     32 H7         -0.2614   -2.3044   -1.2986 H         1 <0>         0.0544
     33 H8          0.9353   -1.8654   -3.4255 H         1 <0>         0.0800
     34 H9          2.4851   -1.8492   -2.5502 H         1 <0>         0.0799
     35 H10         2.1006   -4.1894   -1.8262 H         1 <0>         0.0751
     36 H11         0.5508   -4.2056   -2.7015 H         1 <0>         0.0752
     37 H12         2.5866   -3.4563   -4.5100 H         1 <0>         0.3912
     38 H13         3.2304   -6.7143   -5.5895 H         1 <0>         0.4463
     39 H14         3.4303   -3.8440   -5.9966 H         1 <0>         0.4195
     40 H15         4.0058   -2.4435   -7.0185 H         1 <0>         0.1355
     41 H16         4.8324   -0.6811   -8.5194 H         1 <0>         0.1520
     42 H17         5.5332   -5.4387   -9.6900 H         1 <0>         0.1535
     43 H18         6.1173   -4.3655  -12.0857 H         1 <0>         0.4182
     44 H19         8.2059   -2.7518   -9.7302 H         1 <0>         0.0908
     45 H20         9.5108   -2.4693  -10.9018 H         1 <0>         0.1195
     46 H21         8.3224   -0.3783   -9.8796 H         1 <0>         0.1081
     47 H22         8.5478   -0.4142  -11.6498 H         1 <0>         0.1231
@<TRIPOS>BOND
     1    1    2 1
     2    1   26 1
     3    1   27 1
     4    1   28 1
     5    2    3 1
     6    2   29 1
     7    2   30 1
     8    3    4 1
     9    4    5 1
    10    4   31 1
    11    4   32 1
    12    5    6 1
    13    5   33 1
    14    5   34 1
    15    6    7 1
    16    6   35 1
    17    6   36 1
    18    7    8 am
    19    7   37 1
    20    8    9 2
    21    8   10 am
    22   10   11 1
    23   10   38 1
    24   11   12 am
    25   11   39 1
    26   12   13 2
    27   12   14 1
    28   14   19 ar
    29   14   15 ar
    30   15   16 ar
    31   15   40 1
    32   16   17 ar
    33   16   41 1
    34   17   25 1
    35   17   18 ar
    36   18   19 ar
    37   18   20 1
    38   19   42 1
    39   20   21 am
    40   20   43 1
    41   21   22 2
    42   21   23 1
    43   23   24 1
    44   23   44 1
    45   23   45 1
    46   24   25 1
    47   24   46 1
    48   24   47 1
@<TRIPOS>MOLECULE
ZINC12548951
   44    46     0     0     0
SMALL
USER_CHARGES
6-amino-5-[2-[(3,5-dimethylphenyl)amino]thiazol-4-yl]-1,3-dimethyl-pyrimidine-2,4-dione
@<TRIPOS>ATOM
      1 C1          4.3962    8.0931   -1.2588 C.3       1 <0>        -0.1172
      2 C2          3.8689    6.8941   -0.5134 C.ar      1 <0>        -0.0498
      3 C3          4.7233    6.1335    0.2638 C.ar      1 <0>        -0.1390
      4 C4          4.2435    5.0328    0.9499 C.ar      1 <0>        -0.0437
      5 C5          2.9088    4.6895    0.8609 C.ar      1 <0>        -0.1643
      6 C6          2.0478    5.4514    0.0810 C.ar      1 <0>         0.1683
      7 C7          2.5343    6.5532   -0.6114 C.ar      1 <0>        -0.1523
      8 N1          0.6966    5.1069   -0.0113 N.pl3     1 <0>        -0.6164
      9 C8          0.3182    3.7734    0.0103 C.2       1 <0>         0.3272
     10 N2         -0.8954    3.2598    0.0475 N.2       1 <0>        -0.5618
     11 C9         -1.0850    1.9473    0.0588 C.2       1 <0>         0.1781
     12 C10         0.0163    1.1394    0.0421 C.2       1 <0>        -0.2214
     13 S1          1.3226    2.3575   -0.0039 S.3       1 <0>         0.0625
     14 C11        -2.4528    1.3734    0.0929 C.2       1 <0>        -0.3112
     15 C12        -3.3269    1.5635   -0.9689 C.2       1 <0>         0.5075
     16 N3         -4.5853    1.0180   -0.9048 N.am      1 <0>        -0.5451
     17 C13        -4.9678    0.3087    0.1719 C.2       1 <0>         0.7087
     18 O1         -6.0875   -0.1642    0.2056 O.2       1 <0>        -0.5355
     19 N4         -4.1389    0.1115    1.2118 N.am      1 <0>        -0.5592
     20 C14        -2.8899    0.6172    1.2047 C.2       1 <0>         0.5733
     21 O2         -2.1449    0.4281    2.1505 O.2       1 <0>        -0.5158
     22 C15        -4.5971   -0.6683    2.3643 C.3       1 <0>         0.0809
     23 C16        -5.5182    1.2099   -2.0179 C.3       1 <0>         0.0712
     24 N5         -2.9385    2.2858   -2.0671 N.pl3     1 <0>        -0.8220
     25 C17         5.1782    4.2072    1.7960 C.3       1 <0>        -0.1194
     26 H1          4.7309    7.7864   -2.2498 H         1 <0>         0.0743
     27 H2          3.6053    8.8368   -1.3565 H         1 <0>         0.0683
     28 H3          5.2336    8.5231   -0.7094 H         1 <0>         0.0704
     29 H4          5.7676    6.3995    0.3349 H         1 <0>         0.1267
     30 H5          2.5348    3.8300    1.3972 H         1 <0>         0.1313
     31 H6          1.8686    7.1447   -1.2224 H         1 <0>         0.1280
     32 H7          0.0235    5.8009   -0.0904 H         1 <0>         0.4237
     33 H8          0.0799    0.0613    0.0498 H         1 <0>         0.1929
     34 H9         -5.6218   -0.9989    2.1951 H         1 <0>         0.0993
     35 H10        -3.9518   -1.5370    2.4949 H         1 <0>         0.0801
     36 H11        -4.5584   -0.0490    3.2605 H         1 <0>         0.0791
     37 H12        -5.3996    0.3980   -2.7354 H         1 <0>         0.0830
     38 H13        -6.5402    1.2134   -1.6388 H         1 <0>         0.1059
     39 H14        -5.3090    2.1610   -2.5075 H         1 <0>         0.0843
     40 H15        -2.0258    2.6064   -2.1388 H         1 <0>         0.4262
     41 H16        -3.5763    2.4763   -2.7727 H         1 <0>         0.4065
     42 H17         5.6109    3.4119    1.1891 H         1 <0>         0.0762
     43 H18         5.9744    4.8427    2.1836 H         1 <0>         0.0707
     44 H19         4.6252    3.7699    2.6273 H         1 <0>         0.0695
@<TRIPOS>BOND
     1    1    2 1
     2    1   26 1
     3    1   27 1
     4    1   28 1
     5    2    7 ar
     6    2    3 ar
     7    3    4 ar
     8    3   29 1
     9    4    5 ar
    10    4   25 1
    11    5    6 ar
    12    5   30 1
    13    6    7 ar
    14    6    8 1
    15    7   31 1
    16    8    9 1
    17    8   32 1
    18    9   13 1
    19    9   10 2
    20   10   11 1
    21   11   12 2
    22   11   14 1
    23   12   13 1
    24   12   33 1
    25   14   20 1
    26   14   15 2
    27   15   16 1
    28   15   24 1
    29   16   17 am
    30   16   23 1
    31   17   18 2
    32   17   19 am
    33   19   20 am
    34   19   22 1
    35   20   21 2
    36   22   34 1
    37   22   35 1
    38   22   36 1
    39   23   37 1
    40   23   38 1
    41   23   39 1
    42   24   40 1
    43   24   41 1
    44   25   42 1
    45   25   43 1
    46   25   44 1
@<TRIPOS>MOLECULE
ZINC05442970
   50    53     0     0     0
SMALL
USER_CHARGES

@<TRIPOS>ATOM
      1 C1         -0.0184    1.5028    0.0103 C.3       1 <0>        -0.1143
      2 C2          0.0021   -0.0041    0.0020 C.ar      1 <0>        -0.0892
      3 C3          0.0057   -0.6887   -1.1989 C.ar      1 <0>        -0.1199
      4 C4          0.0245   -2.0709   -1.2065 C.ar      1 <0>        -0.0952
      5 C5          0.0400   -2.7685   -0.0132 C.ar      1 <0>        -0.0724
      6 C6          0.0373   -2.0839    1.1877 C.ar      1 <0>        -0.0998
      7 C7          0.0229   -0.7016    1.1953 C.ar      1 <0>        -0.1237
      8 C8          0.0595   -4.2753   -0.0215 C.3       1 <0>         0.0962
      9 H1          0.0584   -4.6269   -1.0532 H         1 <0>         0.0952
     10 C9          1.3069   -4.7549    0.6602 C.2       1 <0>        -0.2314
     11 C10         1.2729   -5.2319    1.9313 C.2       1 <0>         0.4760
     12 N1          0.0798   -5.2893    2.6158 N.pl3     1 <0>        -0.4363
     13 C11        -1.1124   -5.2577    1.9407 C.2       1 <0>         0.2259
     14 C12        -1.1738   -4.7894    0.6772 C.2       1 <0>        -0.2411
     15 C13        -2.3903   -4.7686   -0.0274 C.2       1 <0>         0.4076
     16 O1         -2.4143   -4.3346   -1.1621 O.2       1 <0>        -0.4562
     17 C14        -3.6625   -5.2728    0.5967 C.3       1 <0>        -0.1594
     18 C15        -3.3185   -6.3510    1.6297 C.3       1 <0>        -0.0573
     19 C16        -2.3498   -5.7539    2.6475 C.3       1 <0>        -0.0739
     20 C17        -2.6603   -7.5419    0.9301 C.3       1 <0>        -0.1527
     21 C18        -4.5940   -6.8077    2.3404 C.3       1 <0>        -0.1378
     22 C19         0.0845   -5.3812    4.0121 C.2       1 <0>         0.4513
     23 N2         -0.9994   -5.4495    4.7909 N.2       1 <0>        -0.5434
     24 C20        -0.6386   -5.5264    6.0461 C.2       1 <0>         0.3012
     25 N3          0.7042   -5.5088    6.0989 N.pl3     1 <0>        -0.4660
     26 H2          1.2546   -5.5526    6.8964 H         1 <0>         0.4521
     27 N4          1.1535   -5.4201    4.7713 N.2       1 <0>        -0.3402
     28 N5          2.4315   -5.6585    2.5352 N.pl3     1 <0>        -0.8427
     29 C21         2.5544   -4.7092   -0.0414 C.1       1 <0>         0.2746
     30 N6          3.5441   -4.6730   -0.5980 N.1       1 <0>        -0.4435
     31 H3          1.0042    1.8801    0.0026 H         1 <0>         0.0683
     32 H4         -0.5455    1.8639   -0.8728 H         1 <0>         0.0657
     33 H5         -0.5286    1.8543    0.9071 H         1 <0>         0.0640
     34 H6         -0.0064   -0.1436   -2.1312 H         1 <0>         0.1203
     35 H7          0.0266   -2.6057   -2.1448 H         1 <0>         0.1222
     36 H8          0.0491   -2.6289    2.1200 H         1 <0>         0.1074
     37 H9          0.0245   -0.1667    2.1335 H         1 <0>         0.1161
     38 H10        -4.1793   -4.4485    1.0882 H         1 <0>         0.1033
     39 H11        -4.3036   -5.6986   -0.1752 H         1 <0>         0.0994
     40 H12        -2.0712   -6.5171    3.3742 H         1 <0>         0.1066
     41 H13        -2.8320   -4.9226    3.1617 H         1 <0>         0.1072
     42 H14        -1.7477   -7.2124    0.4332 H         1 <0>         0.0584
     43 H15        -2.4167   -8.3071    1.6671 H         1 <0>         0.0595
     44 H16        -3.3474   -7.9545    0.1914 H         1 <0>         0.0639
     45 H17        -5.2910   -7.2167    1.6089 H         1 <0>         0.0626
     46 H18        -4.3463   -7.5745    3.0744 H         1 <0>         0.0609
     47 H19        -5.0536   -5.9574    2.8443 H         1 <0>         0.0616
     48 H20        -1.3048   -5.5927    6.8936 H         1 <0>         0.2373
     49 H21         3.2725   -5.6187    2.0535 H         1 <0>         0.4177
     50 H22         2.4081   -5.9994    3.4430 H         1 <0>         0.4139
@<TRIPOS>BOND
     1    1    2 1
     2    1   31 1
     3    1   32 1
     4    1   33 1
     5    2    7 ar
     6    2    3 ar
     7    3    4 ar
     8    3   34 1
     9    4    5 ar
    10    4   35 1
    11    5    6 ar
    12    5    8 1
    13    6    7 ar
    14    6   36 1
    15    7   37 1
    16    8    9 1
    17    8   14 1
    18    8   10 1
    19   10   11 2
    20   10   29 1
    21   11   12 1
    22   11   28 1
    23   12   13 1
    24   12   22 1
    25   13   19 1
    26   13   14 2
    27   14   15 1
    28   15   16 2
    29   15   17 1
    30   17   18 1
    31   17   38 1
    32   17   39 1
    33   18   19 1
    34   18   20 1
    35   18   21 1
    36   19   40 1
    37   19   41 1
    38   20   42 1
    39   20   43 1
    40   20   44 1
    41   21   45 1
    42   21   46 1
    43   21   47 1
    44   22   27 2
    45   22   23 1
    46   23   24 2
    47   24   25 1
    48   24   48 1
    49   25   26 1
    50   25   27 1
    51   28   49 1
    52   28   50 1
    53   29   30 3
@<TRIPOS>MOLECULE
ZINC17304303
   41    44     0     0     0
SMALL
USER_CHARGES

@<TRIPOS>ATOM
      1 C1          0.0403    1.3898    0.0233 C.ar      1 <0>        -0.1403
      2 C2          1.2288    2.1036    0.0028 C.ar      1 <0>        -0.0456
      3 C3          2.4434    1.4476   -0.0233 C.ar      1 <0>        -0.1488
      4 C4          2.4768    0.0614   -0.0291 C.ar      1 <0>         0.1685
      5 C5          1.2724   -0.6632   -0.0084 C.ar      1 <0>        -0.1835
      6 C6          0.0539    0.0107    0.0179 C.ar      1 <0>        -0.0167
      7 C7          1.3443   -2.1356   -0.0148 C.2       1 <0>         0.5522
      8 O1          0.3323   -2.8096    0.0020 O.2       1 <0>        -0.4689
      9 N1          2.5634   -2.7165   -0.0403 N.am      1 <0>        -0.5095
     10 C8          3.6856   -1.9804   -0.0590 C.2       1 <0>         0.5321
     11 S1          5.1948   -2.7881   -0.0903 S.2       1 <0>        -0.5434
     12 N2          3.6753   -0.6364   -0.0546 N.pl3     1 <0>        -0.5837
     13 H1          4.5142   -0.1496   -0.0691 H         1 <0>         0.4481
     14 C9          2.6628   -4.1782   -0.0471 C.3       1 <0>         0.1044
     15 C10         2.6695   -4.6821   -1.4918 C.3       1 <0>        -0.1234
     16 C11         2.7717   -6.1856   -1.4989 C.2       1 <0>         0.5200
     17 O2          2.8332   -6.7957   -0.4489 O.2       1 <0>        -0.5864
     18 N3          2.7946   -6.8448   -2.6531 N.2       1 <0>        -0.6688
     19 C12         2.9897   -8.1608   -2.6637 C.2       1 <0>         0.6554
     20 N4          3.0620   -8.9547   -1.5631 N.pl3     1 <0>        -0.6070
     21 H2          2.9808   -8.6590   -0.6429 H         1 <0>         0.4511
     22 C13         3.2720  -10.2642   -1.9829 C.ar      1 <0>         0.0787
     23 C14         3.4208  -11.4644   -1.3029 C.ar      1 <0>        -0.0990
     24 C15         3.6215  -12.6343   -2.0084 C.ar      1 <0>        -0.1019
     25 C16         3.6748  -12.6152   -3.3916 C.ar      1 <0>        -0.1040
     26 C17         3.5282  -11.4260   -4.0779 C.ar      1 <0>        -0.0977
     27 C18         3.3258  -10.2449   -3.3785 C.ar      1 <0>         0.0816
     28 N5          3.1423   -8.9249   -3.7771 N.pl3     1 <0>        -0.5900
     29 H3         -0.9019    1.9171    0.0481 H         1 <0>         0.1428
     30 H4          1.2043    3.1833    0.0070 H         1 <0>         0.1438
     31 H5          3.3640    2.0120   -0.0395 H         1 <0>         0.1456
     32 H6         -0.8735   -0.5425    0.0342 H         1 <0>         0.1493
     33 H7          3.5851   -4.4820    0.4480 H         1 <0>         0.1336
     34 H8          1.8095   -4.6028    0.4818 H         1 <0>         0.1104
     35 H9          1.7472   -4.3782   -1.9869 H         1 <0>         0.0970
     36 H10         3.5228   -4.2574   -2.0207 H         1 <0>         0.1085
     37 H11         3.1277   -8.6045   -4.6926 H         1 <0>         0.4461
     38 H12         3.3802  -11.4836   -0.2239 H         1 <0>         0.1355
     39 H13         3.7376  -13.5684   -1.4788 H         1 <0>         0.1385
     40 H14         3.8320  -13.5344   -3.9364 H         1 <0>         0.1389
     41 H15         3.5712  -11.4152   -5.1570 H         1 <0>         0.1364
@<TRIPOS>BOND
     1    1    6 ar
     2    1    2 ar
     3    1   29 1
     4    2    3 ar
     5    2   30 1
     6    3    4 ar
     7    3   31 1
     8    4   12 1
     9    4    5 ar
    10    5    6 ar
    11    5    7 1
    12    6   32 1
    13    7    8 2
    14    7    9 am
    15    9   10 1
    16    9   14 1
    17   10   11 2
    18   10   12 1
    19   12   13 1
    20   14   15 1
    21   14   33 1
    22   14   34 1
    23   15   16 1
    24   15   35 1
    25   15   36 1
    26   16   17 2
    27   16   18 1
    28   18   19 2
    29   19   28 1
    30   19   20 1
    31   20   22 1
    32   20   21 1
    33   22   23 ar
    34   22   27 ar
    35   23   24 ar
    36   23   38 1
    37   24   25 ar
    38   24   39 1
    39   25   26 ar
    40   25   40 1
    41   26   27 ar
    42   26   41 1
    43   27   28 1
    44   28   37 1
@<TRIPOS>MOLECULE
ZINC55120493
   44    47     0     0     0
SMALL
USER_CHARGES

@<TRIPOS>ATOM
      1 C1         -0.0184    1.5028    0.0103 C.3       1 <0>        -0.1165
      2 C2          0.0021   -0.0041    0.0020 C.ar      1 <0>        -0.0600
      3 C3          0.0058   -0.6888   -1.1975 C.ar      1 <0>        -0.1190
      4 C4          0.0246   -2.0714   -1.2059 C.ar      1 <0>        -0.0945
      5 C5          0.0401   -2.7726   -0.0143 C.ar      1 <0>        -0.1193
      6 C6          0.0369   -2.0934    1.1884 C.ar      1 <0>        -0.0596
      7 C7          0.0230   -0.7053    1.2000 C.ar      1 <0>         0.0993
      8 N1          0.0250   -0.0130    2.4191 N.am      1 <0>        -0.5234
      9 C8          1.1516    0.3651    3.0357 C.2       1 <0>         0.5264
     10 O1          2.2759    0.1631    2.6299 O.2       1 <0>        -0.4619
     11 C9          0.7992    1.0851    4.3191 C.3       1 <0>        -0.1619
     12 C10        -0.7428    1.0572    4.3375 C.3       1 <0>         0.1277
     13 H1         -1.1450    2.0702    4.3231 H         1 <0>         0.1377
     14 C11        -1.0996    0.3294    3.0597 C.2       1 <0>         0.5041
     15 O2         -2.2253    0.0916    2.6780 O.2       1 <0>        -0.4469
     16 N2         -1.2313    0.3268    5.5097 N.pl3     1 <0>        -0.7244
     17 C12        -2.5044    0.5981    6.0224 C.ar      1 <0>         0.2213
     18 C13        -3.3072    1.5572    5.4149 C.ar      1 <0>        -0.1662
     19 C14        -4.5645    1.8291    5.9159 C.ar      1 <0>        -0.0548
     20 C15        -5.0292    1.1441    7.0284 C.ar      1 <0>         0.0416
     21 C16        -4.2256    0.1804    7.6408 C.ar      1 <0>         0.1359
     22 C17        -2.9655   -0.0942    7.1322 C.ar      1 <0>        -0.1753
     23 N3         -4.9527   -0.3270    8.7150 N.am      1 <0>        -0.6427
     24 H2         -4.6515   -1.0141    9.3299 H         1 <0>         0.4351
     25 C18        -6.1441    0.2985    8.7555 C.2       1 <0>         0.6840
     26 O3         -7.0185    0.0878    9.5752 O.2       1 <0>        -0.5576
     27 N4         -6.2217    1.1920    7.7514 N.am      1 <0>        -0.6409
     28 H3         -6.9774    1.7702    7.5628 H         1 <0>         0.4350
     29 C19         0.0539   -2.8584    2.4867 C.3       1 <0>        -0.1159
     30 H4          1.0042    1.8801    0.0026 H         1 <0>         0.0769
     31 H5         -0.5455    1.8639   -0.8728 H         1 <0>         0.0765
     32 H6         -0.5286    1.8543    0.9071 H         1 <0>         0.0589
     33 H7         -0.0063   -0.1438   -2.1298 H         1 <0>         0.1319
     34 H8          0.0267   -2.6047   -2.1451 H         1 <0>         0.1311
     35 H9          0.0544   -3.8525   -0.0239 H         1 <0>         0.1314
     36 H10         1.2028    0.5532    5.1806 H         1 <0>         0.1312
     37 H11         1.1640    2.1119    4.2955 H         1 <0>         0.1372
     38 H12        -0.6720   -0.3449    5.9303 H         1 <0>         0.4087
     39 H13        -2.9458    2.0914    4.5486 H         1 <0>         0.1319
     40 H14        -5.1855    2.5748    5.4420 H         1 <0>         0.1345
     41 H15        -2.3433   -0.8420    7.6013 H         1 <0>         0.1320
     42 H16         1.0855   -3.0289    2.7945 H         1 <0>         0.0758
     43 H17        -0.4640   -2.2831    3.2542 H         1 <0>         0.0590
     44 H18        -0.4477   -3.8165    2.3504 H         1 <0>         0.0756
@<TRIPOS>BOND
     1    1    2 1
     2    1   30 1
     3    1   31 1
     4    1   32 1
     5    2    7 ar
     6    2    3 ar
     7    3    4 ar
     8    3   33 1
     9    4    5 ar
    10    4   34 1
    11    5    6 ar
    12    5   35 1
    13    6    7 ar
    14    6   29 1
    15    7    8 1
    16    8   14 am
    17    8    9 am
    18    9   10 2
    19    9   11 1
    20   11   12 1
    21   11   36 1
    22   11   37 1
    23   12   13 1
    24   12   14 1
    25   12   16 1
    26   14   15 2
    27   16   17 1
    28   16   38 1
    29   17   22 ar
    30   17   18 ar
    31   18   19 ar
    32   18   39 1
    33   19   20 ar
    34   19   40 1
    35   20   27 1
    36   20   21 ar
    37   21   22 ar
    38   21   23 1
    39   22   41 1
    40   23   24 1
    41   23   25 am
    42   25   26 2
    43   25   27 am
    44   27   28 1
    45   29   42 1
    46   29   43 1
    47   29   44 1
@<TRIPOS>MOLECULE
ZINC67577144
   55    57     0     0     0
SMALL
USER_CHARGES

@<TRIPOS>ATOM
      1 C1          0.2273    1.3474   -0.1445 C.3       1 <0>        -0.1392
      2 C2          0.2778   -0.1790   -0.0533 C.3       1 <0>         0.1428
      3 H1         -0.7275   -0.5690    0.1059 H         1 <0>         0.0741
      4 C3          0.8514   -0.7525   -1.3529 C.3       1 <0>        -0.1324
      5 C4          1.0292   -2.2652   -1.2035 C.3       1 <0>        -0.1223
      6 C5          2.0163   -2.5551   -0.0706 C.3       1 <0>        -0.1365
      7 C6          1.4560   -2.0021    1.2436 C.3       1 <0>         0.0977
      8 N1          1.1433   -0.5772    1.0652 N.am      1 <0>        -0.6017
      9 C7          1.6437    0.3469    1.9090 C.2       1 <0>         0.5154
     10 O1          1.3146    1.5091    1.7999 O.2       1 <0>        -0.5278
     11 C8          2.6122   -0.0638    2.9881 C.3       1 <0>         0.1421
     12 H2          2.2619   -0.9814    3.4607 H         1 <0>         0.1128
     13 C9          3.9919   -0.3025    2.3712 C.3       1 <0>        -0.1607
     14 N2          2.7037    0.9987    3.9925 N.am      1 <0>        -0.7255
     15 C10         3.0740    0.7033    5.2542 C.2       1 <0>         0.7101
     16 O2          3.3322   -0.4452    5.5589 O.2       1 <0>        -0.5728
     17 N3          3.1581    1.6808    6.1783 N.am      1 <0>        -0.6822
     18 C11         3.6412    1.3921    7.4614 C.ar      1 <0>         0.1454
     19 C12         3.3797    0.1611    8.0495 C.ar      1 <0>        -0.0841
     20 C13         3.8652   -0.1040    9.3056 C.ar      1 <0>        -0.1435
     21 C14         4.6196    0.8441   10.0187 C.ar      1 <0>         0.1596
     22 C15         4.8736    2.0664    9.4345 C.ar      1 <0>        -0.0925
     23 C16         4.3875    2.3267    8.1530 C.ar      1 <0>        -0.1181
     24 C17         5.6447    3.1794   10.0668 C.3       1 <0>        -0.0804
     25 C18         5.4708    3.3346   11.5454 C.3       1 <0>        -0.1208
     26 C19         6.2517    2.3250   12.3518 C.3       1 <0>        -0.1374
     27 C20         5.6440    0.9702   12.2826 C.2       1 <0>         0.5252
     28 O3          5.7070    0.2980   13.2903 O.2       1 <0>        -0.5474
     29 N4          5.0509    0.4258   11.2585 N.am      1 <0>        -0.6447
     30 H3          1.2423    1.7429   -0.1825 H         1 <0>         0.0661
     31 H4         -0.3106    1.6399   -1.0463 H         1 <0>         0.0470
     32 H5         -0.2859    1.7469    0.7303 H         1 <0>         0.0760
     33 H6          0.1662   -0.5461   -2.1751 H         1 <0>         0.0771
     34 H7          1.8172   -0.2912   -1.5590 H         1 <0>         0.0679
     35 H8          0.0672   -2.7229   -0.9730 H         1 <0>         0.0659
     36 H9          1.4141   -2.6793   -2.1354 H         1 <0>         0.0688
     37 H10         2.1604   -3.6317    0.0198 H         1 <0>         0.0800
     38 H11         2.9712   -2.0768   -0.2887 H         1 <0>         0.0693
     39 H12         0.5477   -2.5427    1.5097 H         1 <0>         0.0755
     40 H13         2.1974   -2.1175    2.0342 H         1 <0>         0.0905
     41 H14         4.7115   -0.5150    3.1617 H         1 <0>         0.0776
     42 H15         3.9424   -1.1499    1.6874 H         1 <0>         0.0741
     43 H16         4.3045    0.5874    1.8249 H         1 <0>         0.0645
     44 H17         2.4977    1.9149    3.7494 H         1 <0>         0.4082
     45 H18         2.8842    2.5841    5.9550 H         1 <0>         0.4092
     46 H19         2.7987   -0.5813    7.5227 H         1 <0>         0.1488
     47 H20         3.6626   -1.0638    9.7572 H         1 <0>         0.1309
     48 H21         4.5954    3.2815    7.6932 H         1 <0>         0.1297
     49 H22         6.7034    3.0191    9.8633 H         1 <0>         0.0763
     50 H23         5.3487    4.1133    9.5891 H         1 <0>         0.0821
     51 H24         5.7938    4.3354   11.8318 H         1 <0>         0.0849
     52 H25         4.4127    3.2300   11.7854 H         1 <0>         0.0674
     53 H26         7.2709    2.2767   11.9685 H         1 <0>         0.1018
     54 H27         6.2805    2.6481   13.3924 H         1 <0>         0.1081
     55 H28         4.8651   -0.5146   11.4069 H         1 <0>         0.3975
@<TRIPOS>BOND
     1    1    2 1
     2    1   30 1
     3    1   31 1
     4    1   32 1
     5    2    3 1
     6    2    8 1
     7    2    4 1
     8    4    5 1
     9    4   33 1
    10    4   34 1
    11    5    6 1
    12    5   35 1
    13    5   36 1
    14    6    7 1
    15    6   37 1
    16    6   38 1
    17    7    8 1
    18    7   39 1
    19    7   40 1
    20    8    9 am
    21    9   10 2
    22    9   11 1
    23   11   12 1
    24   11   13 1
    25   11   14 1
    26   13   41 1
    27   13   42 1
    28   13   43 1
    29   14   15 am
    30   14   44 1
    31   15   16 2
    32   15   17 am
    33   17   18 1
    34   17   45 1
    35   18   23 ar
    36   18   19 ar
    37   19   20 ar
    38   19   46 1
    39   20   21 ar
    40   20   47 1
    41   21   29 1
    42   21   22 ar
    43   22   23 ar
    44   22   24 1
    45   23   48 1
    46   24   25 1
    47   24   49 1
    48   24   50 1
    49   25   26 1
    50   25   51 1
    51   25   52 1
    52   26   27 1
    53   26   53 1
    54   26   54 1
    55   27   28 2
    56   27   29 am
    57   29   55 1
@<TRIPOS>MOLECULE
ZINC09942116
   47    50     0     0     0
SMALL
USER_CHARGES
5-(4-bromophenyl)-N-(2,4-dimethylphenyl)-3-methyl-2,6,7,8,9-pentazabicyclo[4.3.0]nona-3,7,9-triene-4-carboxamide
@<TRIPOS>ATOM
      1 C1         -1.0796    2.1448   -1.0166 C.3       1 <0>        -0.1148
      2 C2         -1.7717    2.6345    0.2293 C.ar      1 <0>        -0.0962
      3 C3         -2.6248    1.7935    0.9206 C.ar      1 <0>        -0.1052
      4 C4         -3.2568    2.2376    2.0652 C.ar      1 <0>        -0.1219
      5 C5         -3.0432    3.5339    2.5163 C.ar      1 <0>         0.1360
      6 C6         -2.1901    4.3775    1.8169 C.ar      1 <0>        -0.1074
      7 C7         -1.5569    3.9254    0.6756 C.ar      1 <0>        -0.1007
      8 C8         -1.9550    5.7845    2.3029 C.3       1 <0>        -0.1159
      9 N1         -3.6861    3.9887    3.6719 N.am      1 <0>        -0.6580
     10 C9         -4.0893    3.1084    4.6095 C.2       1 <0>         0.5908
     11 O1         -3.8044    1.9294    4.5004 O.2       1 <0>        -0.5008
     12 C10        -4.8435    3.5540    5.7205 C.2       1 <0>        -0.2940
     13 C11        -6.1721    3.6733    5.5840 C.2       1 <0>         0.2205
     14 N2         -6.9819    4.0835    6.6153 N.pl3     1 <0>        -0.6031
     15 C12        -6.4219    4.1389    7.8834 C.2       1 <0>         0.4647
     16 N3         -6.9737    4.2783    9.0548 N.2       1 <0>        -0.3343
     17 N4         -6.0731    4.2683    9.9772 N.2       1 <0>        -0.0193
     18 N5         -4.8968    4.1243    9.4573 N.2       1 <0>        -0.0512
     19 N6         -5.0813    4.0382    8.0787 N.pl3     1 <0>        -0.3898
     20 C13        -4.1153    3.8778    6.9984 C.3       1 <0>         0.2756
     21 H1         -3.4292    3.0664    7.2414 H         1 <0>         0.1240
     22 C14        -3.3389    5.1575    6.8241 C.ar      1 <0>        -0.1009
     23 C15        -4.0001    6.3289    6.5051 C.ar      1 <0>        -0.0918
     24 C16        -3.2889    7.5039    6.3499 C.ar      1 <0>        -0.0885
     25 C17        -1.9142    7.5055    6.5035 C.ar      1 <0>        -0.0756
     26 C18        -1.2525    6.3321    6.8176 C.ar      1 <0>        -0.0847
     27 C19        -1.9651    5.1586    6.9777 C.ar      1 <0>        -0.0802
     28 Br1        -0.9398    9.1111    6.2837 Br        1 <0>        -0.0374
     29 C20        -6.7995    3.3402    4.2549 C.3       1 <0>        -0.1365
     30 H2         -0.1219    1.6986   -0.7486 H         1 <0>         0.0703
     31 H3         -0.9134    2.9830   -1.6932 H         1 <0>         0.0659
     32 H4         -1.7030    1.3985   -1.5090 H         1 <0>         0.0664
     33 H5         -2.7937    0.7871    0.5671 H         1 <0>         0.1252
     34 H6         -3.9197    1.5791    2.6069 H         1 <0>         0.1448
     35 H7         -0.8931    4.5808    0.1314 H         1 <0>         0.1256
     36 H8         -2.6888    6.4522    1.8514 H         1 <0>         0.0713
     37 H9         -2.0546    5.8155    3.3879 H         1 <0>         0.0612
     38 H10        -0.9516    6.1034    2.0209 H         1 <0>         0.0734
     39 H11        -3.8420    4.9377    3.7987 H         1 <0>         0.4113
     40 H12        -7.9080    4.3280    6.4619 H         1 <0>         0.4467
     41 H13        -5.0730    6.3268    6.3811 H         1 <0>         0.1237
     42 H14        -3.8061    8.4199    6.1051 H         1 <0>         0.1385
     43 H15        -0.1791    6.3328    6.9373 H         1 <0>         0.1413
     44 H16        -1.4484    4.2424    7.2226 H         1 <0>         0.1389
     45 H17        -6.9870    2.2678    4.2002 H         1 <0>         0.1040
     46 H18        -7.7413    3.8793    4.1523 H         1 <0>         0.0921
     47 H19        -6.1241    3.6324    3.4508 H         1 <0>         0.0959
@<TRIPOS>BOND
     1    1    2 1
     2    1   30 1
     3    1   31 1
     4    1   32 1
     5    2    7 ar
     6    2    3 ar
     7    3    4 ar
     8    3   33 1
     9    4    5 ar
    10    4   34 1
    11    5    6 ar
    12    5    9 1
    13    6    7 ar
    14    6    8 1
    15    7   35 1
    16    8   36 1
    17    8   37 1
    18    8   38 1
    19    9   10 am
    20    9   39 1
    21   10   11 2
    22   10   12 1
    23   12   20 1
    24   12   13 2
    25   13   14 1
    26   13   29 1
    27   14   15 1
    28   14   40 1
    29   15   19 1
    30   15   16 2
    31   16   17 1
    32   17   18 2
    33   18   19 1
    34   19   20 1
    35   20   21 1
    36   20   22 1
    37   22   27 ar
    38   22   23 ar
    39   23   24 ar
    40   23   41 1
    41   24   25 ar
    42   24   42 1
    43   25   26 ar
    44   25   28 1
    45   26   27 ar
    46   26   43 1
    47   27   44 1
    48   29   45 1
    49   29   46 1
    50   29   47 1
@<TRIPOS>MOLECULE
ZINC27647154
   66    68     0     0     0
SMALL
USER_CHARGES
(4R)-4-[(1S,4R,5E,7Z,11E,15S,17S)-4,11-diethyl-17-hydroxy-13-oxo-14,18-dioxabicyclo[13.3.1]nonadeca-5,7,11-trien-17-yl]thiazolidin-2-one
@<TRIPOS>ATOM
      1 C1          5.6665    0.8319    0.3541 C.3       1 <0>        -0.1560
      2 C2          5.2958    2.0750    1.1654 C.3       1 <0>        -0.1220
      3 C3          4.0637    2.7387    0.5471 C.3       1 <0>        -0.0594
      4 H1          4.2530    2.9658   -0.5124 H         1 <0>         0.0803
      5 C4          3.7469    4.0284    1.3030 C.3       1 <0>        -0.1126
      6 C5          5.0216    4.8641    1.4374 C.3       1 <0>        -0.1210
      7 C6          4.7601    6.0422    2.3808 C.3       1 <0>         0.1019
      8 H2          5.5286    6.8210    2.2668 H         1 <0>         0.0765
      9 C7          3.3551    6.5999    2.1246 C.3       1 <0>        -0.1726
     10 C8          2.5006    6.4115    3.3805 C.3       1 <0>         0.1514
     11 H3          2.3472    5.3441    3.5978 H         1 <0>         0.0716
     12 C9          3.1702    7.1239    4.5585 C.3       1 <0>        -0.1448
     13 C10         4.6073    6.6199    4.7037 C.3       1 <0>         0.3005
     14 O1          4.8530    5.5979    3.7362 O.3       1 <0>        -0.3836
     15 C11         4.8086    6.0506    6.1095 C.3       1 <0>         0.1218
     16 H4          4.5189    6.7525    6.9054 H         1 <0>         0.1195
     17 C12         6.2932    5.6686    6.2814 C.3       1 <0>        -0.0867
     18 S1          6.1481    3.8794    6.6539 S.3       1 <0>        -0.1820
     19 C13         4.3761    3.7137    6.5812 C.2       1 <0>         0.5694
     20 O2          3.7257    2.7011    6.7567 O.2       1 <0>        -0.4722
     21 N1          3.9080    4.9362    6.2921 N.am      1 <0>        -0.7370
     22 O3          5.5156    7.7030    4.4937 O.3       1 <0>        -0.5839
     23 O4          1.1815    6.9375    3.1679 O.3       1 <0>        -0.4021
     24 C14         0.1034    6.1871    3.2009 C.2       1 <0>         0.5193
     25 O5         -0.4787    6.1350    4.2665 O.2       1 <0>        -0.4682
     26 C15        -0.4763    5.4138    2.1196 C.2       1 <0>        -0.2562
     27 C16        -1.4216    4.5060    2.3575 C.2       1 <0>         0.0120
     28 C17        -2.0233    3.7183    1.2194 C.3       1 <0>        -0.0961
     29 C18        -0.9235    3.2764    0.2539 C.3       1 <0>        -0.1034
     30 C19        -0.7113    1.7912    0.3760 C.2       1 <0>        -0.1532
     31 C20         0.5287    1.3041    0.4091 C.2       1 <0>        -0.1306
     32 C21         1.6707    2.2211    0.3104 C.2       1 <0>        -0.1446
     33 C22         2.8864    1.7985    0.6390 C.2       1 <0>        -0.1319
     34 C23        -1.8921    4.2624    3.7675 C.3       1 <0>        -0.1127
     35 C24        -3.0702    5.1877    4.0790 C.3       1 <0>        -0.1334
     36 H5          6.5523    0.3547    0.7986 H         1 <0>         0.0542
     37 H6          5.8887    1.1237   -0.6829 H         1 <0>         0.0532
     38 H7          4.8249    0.1236    0.3634 H         1 <0>         0.0549
     39 H8          5.0736    1.7832    2.2024 H         1 <0>         0.0648
     40 H9          6.1374    2.7833    1.1562 H         1 <0>         0.0706
     41 H10         2.9885    4.6012    0.7491 H         1 <0>         0.0659
     42 H11         3.3618    3.7819    2.3035 H         1 <0>         0.0681
     43 H12         5.8288    4.2384    1.8459 H         1 <0>         0.0899
     44 H13         5.3170    5.2440    0.4483 H         1 <0>         0.0816
     45 H14         3.4242    7.6708    1.8829 H         1 <0>         0.0851
     46 H15         2.8954    6.0627    1.2819 H         1 <0>         0.0945
     47 H16         3.1772    8.2085    4.3751 H         1 <0>         0.1060
     48 H17         2.6106    6.9117    5.4814 H         1 <0>         0.0889
     49 H18         6.8369    5.8816    5.3492 H         1 <0>         0.1186
     50 H19         6.7301    6.2554    7.1029 H         1 <0>         0.1252
     51 H20         2.8225    5.0846    6.1943 H         1 <0>         0.4301
     52 H21         6.6002    7.5316    4.5583 H         1 <0>         0.4136
     53 H22        -0.1249    5.5854    1.0915 H         1 <0>         0.1326
     54 H23        -2.5344    2.8297    1.6184 H         1 <0>         0.0853
     55 H24        -2.7477    4.3470    0.6810 H         1 <0>         0.0930
     56 H25        -1.2210    3.5196   -0.7768 H         1 <0>         0.0794
     57 H26         0.0120    3.8007    0.4989 H         1 <0>         0.0836
     58 H27        -1.5720    1.1090    0.4378 H         1 <0>         0.1164
     59 H28         0.6916    0.2209    0.5099 H         1 <0>         0.1154
     60 H29         1.5223    3.2551   -0.0343 H         1 <0>         0.1157
     61 H30         3.0356    0.7628    0.9783 H         1 <0>         0.1136
     62 H31        -2.2110    3.2148    3.8718 H         1 <0>         0.0664
     63 H32        -1.0698    4.4668    4.4689 H         1 <0>         0.1034
     64 H33        -3.4138    5.0098    5.1087 H         1 <0>         0.0598
     65 H34        -3.8925    4.9832    3.3775 H         1 <0>         0.0499
     66 H35        -2.7512    6.2352    3.9747 H         1 <0>         0.0622
@<TRIPOS>BOND
     1    1    2 1
     2    1   36 1
     3    1   37 1
     4    1   38 1
     5    2    3 1
     6    2   39 1
     7    2   40 1
     8    3    4 1
     9    3   33 1
    10    3    5 1
    11    5    6 1
    12    5   41 1
    13    5   42 1
    14    6    7 1
    15    6   43 1
    16    6   44 1
    17    7    8 1
    18    7   14 1
    19    7    9 1
    20    9   10 1
    21    9   45 1
    22    9   46 1
    23   10   11 1
    24   10   12 1
    25   10   23 1
    26   12   13 1
    27   12   47 1
    28   12   48 1
    29   13   14 1
    30   13   15 1
    31   13   22 1
    32   15   16 1
    33   15   21 1
    34   15   17 1
    35   17   18 1
    36   17   49 1
    37   17   50 1
    38   18   19 1
    39   19   20 2
    40   19   21 am
    41   21   51 1
    42   22   52 1
    43   23   24 1
    44   24   25 2
    45   24   26 1
    46   26   27 2
    47   26   53 1
    48   27   28 1
    49   27   34 1
    50   28   29 1
    51   28   54 1
    52   28   55 1
    53   29   30 1
    54   29   56 1
    55   29   57 1
    56   30   31 2
    57   30   58 1
    58   31   32 1
    59   31   59 1
    60   32   33 2
    61   32   60 1
    62   33   61 1
    63   34   35 1
    64   34   62 1
    65   34   63 1
    66   35   64 1
    67   35   65 1
    68   35   66 1
@<TRIPOS>MOLECULE
ZINC39237570
   46    50     0     0     0
SMALL
USER_CHARGES

@<TRIPOS>ATOM
      1 C1         -0.3518    2.1833   -0.3629 C.3       1 <0>        -0.1273
      2 C2         -0.3015    0.7027   -0.6392 C.ar      1 <0>         0.0122
      3 C3         -0.4101    0.2336   -1.9359 C.ar      1 <0>        -0.1252
      4 C4         -0.3612   -1.1232   -2.1841 C.ar      1 <0>         0.0665
      5 N1         -0.1867   -1.9694   -1.1853 N.ar      1 <0>        -0.4191
      6 C5         -0.0647   -1.5617    0.0588 C.ar      1 <0>         0.1417
      7 C6         -0.1395   -0.2014    0.4113 C.ar      1 <0>        -0.1285
      8 C7         -0.0860    0.0549    1.8695 C.3       1 <0>         0.1333
      9 H1         -1.1071   -0.1201    2.2085 H         1 <0>         0.1053
     10 C8          0.7299   -1.0299    2.6267 C.3       1 <0>        -0.1523
     11 H2          1.8034   -0.8474    2.6744 H         1 <0>         0.1560
     12 S1          0.2383   -2.4556    1.5744 S.3       1 <0>         0.0077
     13 C9          0.0504   -1.0760    3.9799 C.2       1 <0>         0.5569
     14 O1         -0.1883   -2.1100    4.5671 O.2       1 <0>        -0.4774
     15 N2         -0.2669    0.1515    4.4755 N.am      1 <0>        -0.7385
     16 C10         0.1540    1.3949    3.8516 C.3       1 <0>         0.3543
     17 H3          1.1367    1.6602    4.2416 H         1 <0>         0.0909
     18 N3          0.2373    1.3501    2.3947 N.3       1 <0>        -0.6628
     19 C11        -0.8340    2.4934    4.2491 C.3       1 <0>        -0.1386
     20 H4         -0.8890    2.5847    5.3339 H         1 <0>         0.1447
     21 C12        -2.2051    2.2152    3.6662 C.2       1 <0>         0.0949
     22 N4         -2.4701    3.2090    2.8819 N.2       1 <0>        -0.2915
     23 N5         -1.4453    4.1489    2.8484 N.2       1 <0>        -0.2866
     24 C13        -0.4430    3.8165    3.6207 C.2       1 <0>         0.1573
     25 C14         0.8039    4.5671    3.8356 C.ar      1 <0>        -0.0391
     26 C15         1.0766    5.7091    3.0754 C.ar      1 <0>        -0.0568
     27 C16         2.2467    6.4077    3.2826 C.ar      1 <0>        -0.1107
     28 C17         3.1516    5.9811    4.2410 C.ar      1 <0>        -0.0146
     29 C18         2.8884    4.8507    4.9974 C.ar      1 <0>        -0.1110
     30 C19         1.7197    4.1455    4.8052 C.ar      1 <0>        -0.0828
     31 Cl1         4.6227    6.8672    4.4950 Cl        1 <0>        -0.0568
     32 C20        -0.5073   -1.6383   -3.5928 C.3       1 <0>         0.5280
     33 F1          0.7540   -1.7207   -4.1924 F         1 <0>        -0.1661
     34 F2         -1.0950   -2.9076   -3.5666 F         1 <0>        -0.1598
     35 F3         -1.3165   -0.7648   -4.3272 F         1 <0>        -0.1662
     36 H5          0.6564    2.5954   -0.4062 H         1 <0>         0.0828
     37 H6         -0.9763    2.6715   -1.1111 H         1 <0>         0.0771
     38 H7         -0.7718    2.3539    0.6283 H         1 <0>         0.0997
     39 H8         -0.5333    0.9285   -2.7534 H         1 <0>         0.1584
     40 H9         -0.8002    0.1987    5.2844 H         1 <0>         0.4141
     41 H10         1.1486    1.6499    2.0821 H         1 <0>         0.3667
     42 H11        -2.8337    1.3599    3.8654 H         1 <0>         0.1962
     43 H12         0.3722    6.0425    2.3277 H         1 <0>         0.1463
     44 H13         2.4587    7.2894    2.6961 H         1 <0>         0.1427
     45 H14         3.5987    4.5235    5.7423 H         1 <0>         0.1420
     46 H15         1.5136    3.2672    5.3988 H         1 <0>         0.1358
@<TRIPOS>BOND
     1    1    2 1
     2    1   36 1
     3    1   37 1
     4    1   38 1
     5    2    7 ar
     6    2    3 ar
     7    3    4 ar
     8    3   39 1
     9    4    5 ar
    10    4   32 1
    11    5    6 ar
    12    6   12 1
    13    6    7 ar
    14    7    8 1
    15    8    9 1
    16    8   18 1
    17    8   10 1
    18   10   11 1
    19   10   12 1
    20   10   13 1
    21   13   14 2
    22   13   15 am
    23   15   16 1
    24   15   40 1
    25   16   17 1
    26   16   18 1
    27   16   19 1
    28   18   41 1
    29   19   20 1
    30   19   24 1
    31   19   21 1
    32   21   22 2
    33   21   42 1
    34   22   23 1
    35   23   24 2
    36   24   25 1
    37   25   30 ar
    38   25   26 ar
    39   26   27 ar
    40   26   43 1
    41   27   28 ar
    42   27   44 1
    43   28   29 ar
    44   28   31 1
    45   29   30 ar
    46   29   45 1
    47   30   46 1
    48   32   33 1
    49   32   34 1
    50   32   35 1
@<TRIPOS>MOLECULE
ZINC44963247
   73    75     0     0     0
SMALL
USER_CHARGES

@<TRIPOS>ATOM
      1 C1          1.7337   -1.3904   -0.9665 C.3       1 <0>        -0.0670
      2 C2          0.5562   -0.9547   -0.1330 C.2       1 <0>         0.0567
      3 N1         -0.6400   -1.4792   -0.0864 N.2       1 <0>        -0.5068
      4 C3         -1.5819   -0.9817    0.7045 C.2       1 <0>         0.1005
      5 C4         -1.2297    0.1052    1.4632 C.2       1 <0>        -0.2308
      6 S1          0.4713    0.3181    0.9642 S.3       1 <0>         0.1086
      7 C5         -2.9373   -1.5668    0.7643 C.2       1 <0>        -0.1112
      8 C6         -3.2709   -2.5525   -0.0579 C.2       1 <0>        -0.1095
      9 C7         -2.3223   -2.9772   -1.1491 C.3       1 <0>        -0.0968
     10 C8         -4.5969   -3.2467    0.0988 C.3       1 <0>         0.1407
     11 H1         -4.4386   -4.3290    0.0858 H         1 <0>         0.0975
     12 C9         -5.5215   -2.8635   -1.0597 C.3       1 <0>        -0.0990
     13 C10        -5.8549   -1.3759   -0.9998 C.3       1 <0>         0.0052
     14 H2         -5.3669   -0.8018   -0.2118 H         1 <0>         0.1265
     15 C11        -7.2668   -0.9445   -1.4052 C.3       1 <0>        -0.0067
     16 H3         -7.9682   -1.7225   -1.7105 H         1 <0>         0.1212
     17 O1         -6.1255   -0.7154   -2.2402 O.3       1 <0>        -0.3543
     18 C12        -7.8777    0.2826   -0.7211 C.3       1 <0>        -0.1095
     19 C13        -8.0652    0.0218    0.7766 C.3       1 <0>        -0.1137
     20 C14        -8.5328    1.3203    1.4377 C.3       1 <0>        -0.1128
     21 C15        -7.6906    1.6430    2.6761 C.3       1 <0>        -0.0806
     22 H4         -8.1540    2.4901    3.1882 H         1 <0>         0.0764
     23 C16        -7.6673    0.4319    3.6055 C.3       1 <0>         0.1252
     24 H5         -7.3515   -0.4537    3.0423 H         1 <0>         0.0780
     25 C17        -6.7189    0.6165    4.7919 C.3       1 <0>        -0.1657
     26 H6         -5.7185    0.8520    4.4536 H         1 <0>         0.0994
     27 C18        -6.7294   -0.6388    5.6184 C.2       1 <0>         0.3880
     28 O2         -7.7411   -0.9124    6.2370 O.2       1 <0>        -0.4472
     29 C19        -5.5547   -1.5773    5.7197 C.3       1 <0>        -0.0958
     30 C20        -5.6061   -2.6180    4.6086 C.3       1 <0>         0.1311
     31 H7         -5.5964   -3.6193    5.0808 H         1 <0>         0.0733
     32 C21        -4.4239   -2.5311    3.6533 C.3       1 <0>        -0.1590
     33 C22        -4.6924   -3.4186    2.4540 C.2       1 <0>         0.4688
     34 O3         -4.4501   -4.5992    2.5067 O.2       1 <0>        -0.4718
     35 O4         -5.2039   -2.8785    1.3362 O.3       1 <0>        -0.3598
     36 O5         -6.8281   -2.5028    3.8829 O.3       1 <0>        -0.5559
     37 C23        -5.6806   -2.3198    7.0640 C.3       1 <0>        -0.1427
     38 C24        -4.2368   -0.8140    5.7235 C.3       1 <0>        -0.1489
     39 C25        -7.2294    1.7712    5.6741 C.3       1 <0>        -0.1404
     40 O6         -8.9950    0.2095    4.1097 O.3       1 <0>        -0.5639
     41 C26        -6.2818    2.0423    2.2371 C.3       1 <0>        -0.1494
     42 H8          2.5840   -0.7396   -0.7625 H         1 <0>         0.0850
     43 H9          1.9950   -2.4187   -0.7167 H         1 <0>         0.0915
     44 H10         1.4738   -1.3280   -2.0233 H         1 <0>         0.0919
     45 H11        -1.8174    0.6727    2.1696 H         1 <0>         0.1951
     46 H12        -3.6563   -1.1918    1.4776 H         1 <0>         0.1325
     47 H13        -1.4064   -3.3654   -0.7035 H         1 <0>         0.0902
     48 H14        -2.7894   -3.7540   -1.7546 H         1 <0>         0.0478
     49 H15        -2.0850   -2.1195   -1.7784 H         1 <0>         0.0751
     50 H16        -5.0245   -3.0854   -2.0073 H         1 <0>         0.1018
     51 H17        -6.4433   -3.4449   -0.9986 H         1 <0>         0.0922
     52 H18        -7.2122    1.1371   -0.8551 H         1 <0>         0.0719
     53 H19        -8.8481    0.5031   -1.1729 H         1 <0>         0.0758
     54 H20        -8.8320   -0.7446    0.9135 H         1 <0>         0.0648
     55 H21        -7.1310   -0.3242    1.2104 H         1 <0>         0.0736
     56 H22        -8.4325    2.1380    0.7187 H         1 <0>         0.0619
     57 H23        -9.5825    1.2245    1.7249 H         1 <0>         0.0700
     58 H24        -4.2927   -1.5112    3.2901 H         1 <0>         0.1097
     59 H25        -3.5136   -2.8914    4.1429 H         1 <0>         0.1232
     60 H26        -6.9187   -3.1403    3.1614 H         1 <0>         0.3833
     61 H27        -6.6184   -2.8750    7.0859 H         1 <0>         0.0721
     62 H28        -4.8460   -3.0118    7.1765 H         1 <0>         0.0660
     63 H29        -5.6667   -1.5979    7.8806 H         1 <0>         0.0644
     64 H30        -4.2129   -0.1346    6.5756 H         1 <0>         0.0716
     65 H31        -3.4088   -1.5190    5.7976 H         1 <0>         0.0739
     66 H32        -4.1456   -0.2420    4.8002 H         1 <0>         0.0684
     67 H33        -8.2293    1.5353    6.0385 H         1 <0>         0.0732
     68 H34        -6.5566    1.9063    6.5209 H         1 <0>         0.0519
     69 H35        -7.2637    2.6890    5.0871 H         1 <0>         0.0663
     70 H36        -9.0663   -0.5451    4.7102 H         1 <0>         0.3804
     71 H37        -6.3370    2.9204    1.5937 H         1 <0>         0.0620
     72 H38        -5.6791    2.2728    3.1156 H         1 <0>         0.0569
     73 H39        -5.8249    1.2184    1.6890 H         1 <0>         0.0578
@<TRIPOS>BOND
     1    1    2 1
     2    1   42 1
     3    1   43 1
     4    1   44 1
     5    2    6 1
     6    2    3 2
     7    3    4 1
     8    4    5 2
     9    4    7 1
    10    5    6 1
    11    5   45 1
    12    7    8 2
    13    7   46 1
    14    8    9 1
    15    8   10 1
    16    9   47 1
    17    9   48 1
    18    9   49 1
    19   10   11 1
    20   10   35 1
    21   10   12 1
    22   12   13 1
    23   12   50 1
    24   12   51 1
    25   13   14 1
    26   13   17 1
    27   13   15 1
    28   15   16 1
    29   15   17 1
    30   15   18 1
    31   18   19 1
    32   18   52 1
    33   18   53 1
    34   19   20 1
    35   19   54 1
    36   19   55 1
    37   20   21 1
    38   20   56 1
    39   20   57 1
    40   21   22 1
    41   21   23 1
    42   21   41 1
    43   23   24 1
    44   23   25 1
    45   23   40 1
    46   25   26 1
    47   25   27 1
    48   25   39 1
    49   27   28 2
    50   27   29 1
    51   29   30 1
    52   29   37 1
    53   29   38 1
    54   30   31 1
    55   30   32 1
    56   30   36 1
    57   32   33 1
    58   32   58 1
    59   32   59 1
    60   33   34 2
    61   33   35 1
    62   36   60 1
    63   37   61 1
    64   37   62 1
    65   37   63 1
    66   38   64 1
    67   38   65 1
    68   38   66 1
    69   39   67 1
    70   39   68 1
    71   39   69 1
    72   40   70 1
    73   41   71 1
    74   41   72 1
    75   41   73 1
@<TRIPOS>MOLECULE
ZINC08845132
   48    51     0     0     0
SMALL
USER_CHARGES

@<TRIPOS>ATOM
      1 C1         -0.1226    1.4899    0.1063 C.3       1 <0>        -0.1186
      2 C2          0.0451   -0.0077    0.0904 C.ar      1 <0>        -0.0530
      3 C3          1.1943   -0.5664   -0.4404 C.ar      1 <0>        -0.1308
      4 C4          1.3561   -1.9371   -0.4589 C.ar      1 <0>        -0.0343
      5 C5          0.3599   -2.7614    0.0582 C.ar      1 <0>        -0.0480
      6 C6         -0.7997   -2.1943    0.5937 C.ar      1 <0>         0.1388
      7 C7         -0.9470   -0.8165    0.6112 C.ar      1 <0>        -0.1539
      8 O1         -1.7768   -2.9908    1.1004 O.3       1 <0>        -0.4881
      9 C8          0.5288   -4.2358    0.0402 C.2       1 <0>         0.1325
     10 C9          0.3503   -5.1031    1.1234 C.2       1 <0>        -0.1647
     11 C10         0.6145   -6.3698    0.6390 C.2       1 <0>        -0.0633
     12 N1          0.9322   -6.2131   -0.6802 N.pl3     1 <0>        -0.3351
     13 H1          1.1660   -6.9335   -1.2863 H         1 <0>         0.4528
     14 N2          0.8692   -4.9698   -1.0009 N.2       1 <0>        -0.2429
     15 C11         0.4432   -7.3326    1.7327 C.2       1 <0>         0.5985
     16 O2          0.6027   -8.5341    1.6313 O.2       1 <0>        -0.5190
     17 N3          0.0848   -6.6983    2.8635 N.am      1 <0>        -0.5893
     18 C12        -0.0017   -5.2603    2.5773 C.3       1 <0>         0.2515
     19 H2         -1.0152   -4.9026    2.7588 H         1 <0>         0.1060
     20 C13         0.9785   -4.5004    3.4334 C.ar      1 <0>        -0.0698
     21 C14         2.3306   -4.7761    3.3468 C.ar      1 <0>        -0.0399
     22 C15         3.2301   -4.0794    4.1317 C.ar      1 <0>        -0.1154
     23 C16         2.7781   -3.1065    5.0036 C.ar      1 <0>        -0.0797
     24 C17         1.4258   -2.8301    5.0902 C.ar      1 <0>        -0.0857
     25 C18         0.5263   -3.5240    4.3006 C.ar      1 <0>        -0.0699
     26 Br1         0.8068   -1.4998    6.2832 Br        1 <0>        -0.0540
     27 C19        -0.1752   -7.3329    4.1581 C.3       1 <0>         0.1414
     28 C20         1.1496   -7.5658    4.8871 C.3       1 <0>         0.0546
     29 O3          1.6958   -6.3101    5.2955 O.3       1 <0>        -0.5546
     30 C21         2.6093   -2.5409   -1.0386 C.3       1 <0>        -0.1259
     31 H3          0.2880    1.8917    1.0326 H         1 <0>         0.0752
     32 H4          0.4050    1.9236   -0.7433 H         1 <0>         0.0700
     33 H5         -1.1821    1.7376    0.0409 H         1 <0>         0.0693
     34 H6          1.9672    0.0721   -0.8420 H         1 <0>         0.1287
     35 H7         -1.8396   -0.3746    1.0286 H         1 <0>         0.1327
     36 H8         -1.7235   -3.1182    2.0575 H         1 <0>         0.3829
     37 H9          2.6840   -5.5364    2.6660 H         1 <0>         0.1116
     38 H10         4.2861   -4.2954    4.0641 H         1 <0>         0.1265
     39 H11         3.4809   -2.5627    5.6174 H         1 <0>         0.1284
     40 H12        -0.5294   -3.3058    4.3651 H         1 <0>         0.1260
     41 H13        -0.8117   -6.6838    4.7595 H         1 <0>         0.0985
     42 H14        -0.6760   -8.2881    4.0004 H         1 <0>         0.1018
     43 H15         0.9769   -8.1894    5.7642 H         1 <0>         0.0604
     44 H16         1.8496   -8.0660    4.2178 H         1 <0>         0.0501
     45 H17         2.5381   -6.3816    5.7651 H         1 <0>         0.3747
     46 H18         3.3584   -2.6462   -0.2539 H         1 <0>         0.0699
     47 H19         2.3805   -3.5213   -1.4565 H         1 <0>         0.0827
     48 H20         2.9952   -1.8919   -1.8247 H         1 <0>         0.0703
@<TRIPOS>BOND
     1    1    2 1
     2    1   31 1
     3    1   32 1
     4    1   33 1
     5    2    7 ar
     6    2    3 ar
     7    3    4 ar
     8    3   34 1
     9    4    5 ar
    10    4   30 1
    11    5    6 ar
    12    5    9 1
    13    6    7 ar
    14    6    8 1
    15    7   35 1
    16    8   36 1
    17    9   14 2
    18    9   10 1
    19   10   18 1
    20   10   11 2
    21   11   12 1
    22   11   15 1
    23   12   13 1
    24   12   14 1
    25   15   16 2
    26   15   17 am
    27   17   18 1
    28   17   27 1
    29   18   19 1
    30   18   20 1
    31   20   25 ar
    32   20   21 ar
    33   21   22 ar
    34   21   37 1
    35   22   23 ar
    36   22   38 1
    37   23   24 ar
    38   23   39 1
    39   24   25 ar
    40   24   26 1
    41   25   40 1
    42   27   28 1
    43   27   41 1
    44   27   42 1
    45   28   29 1
    46   28   43 1
    47   28   44 1
    48   29   45 1
    49   30   46 1
    50   30   47 1
    51   30   48 1
@<TRIPOS>MOLECULE
ZINC09560454
   74    79     0     0     0
SMALL
USER_CHARGES
diethoxy-(4-phenylpiperazin-1-yl)carbonyl-BLAHone
@<TRIPOS>ATOM
      1 C1          5.1345    0.0152    6.7720 C.3       1 <0>        -0.1518
      2 C2          4.5006    0.7173    5.5694 C.3       1 <0>         0.0529
      3 O1          3.9389   -0.2587    4.6896 O.3       1 <0>        -0.3031
      4 C3          3.3322    0.2019    3.5631 C.ar      1 <0>         0.1155
      5 C4          3.2774    1.5600    3.3081 C.ar      1 <0>        -0.1756
      6 C5          2.6591    2.0380    2.1597 C.ar      1 <0>        -0.0354
      7 C6          2.1003    1.1563    1.2631 C.ar      1 <0>        -0.0903
      8 C7          2.1521   -0.2094    1.5165 C.ar      1 <0>        -0.1695
      9 C8          2.7631   -0.6904    2.6595 C.ar      1 <0>         0.1040
     10 O2          2.8074   -2.0282    2.8998 O.3       1 <0>        -0.3018
     11 C9          2.2020   -2.8824    1.9272 C.3       1 <0>         0.0545
     12 C10         2.3500   -4.3405    2.3664 C.3       1 <0>        -0.1523
     13 C11         1.4239    1.6054   -0.0029 C.3       1 <0>         0.2209
     14 H1          1.9427    1.1466   -0.8446 H         1 <0>         0.0879
     15 C12        -0.0162    1.0888    0.0049 C.3       1 <0>        -0.0814
     16 H2         -0.0089   -0.0011   -0.0079 H         1 <0>         0.1169
     17 C13        -0.7569    1.5965   -1.2020 C.ar      1 <0>        -0.0536
     18 C14        -1.7278    0.8329   -1.8116 C.ar      1 <0>        -0.1186
     19 C15        -2.4121    1.3311   -2.9069 C.ar      1 <0>        -0.0882
     20 C16        -2.1310    2.5966   -3.3914 C.ar      1 <0>        -0.1204
     21 C17        -1.1553    3.3684   -2.7923 C.ar      1 <0>        -0.0539
     22 C18        -0.4487    2.8633   -1.7040 C.ar      1 <0>        -0.1205
     23 C19         0.6085    3.6519   -1.0429 C.2       1 <0>         0.5653
     24 O3          0.7054    4.8437   -1.2612 O.2       1 <0>        -0.5259
     25 N1          1.4721    3.0449   -0.1905 N.am      1 <0>        -0.5850
     26 C20         2.4562    3.8852    0.4840 C.3       1 <0>         0.1214
     27 C21         2.6224    3.5235    1.9443 C.3       1 <0>        -0.0884
     28 C22        -0.7120    1.5688    1.2525 C.2       1 <0>         0.5311
     29 O4         -0.3333    2.5782    1.8079 O.2       1 <0>        -0.5066
     30 N2         -1.7553    0.8763    1.7510 N.am      1 <0>        -0.6124
     31 C23        -2.1626   -0.4064    1.1577 C.3       1 <0>         0.1066
     32 C24        -2.2661   -1.4472    2.2840 C.3       1 <0>         0.0429
     33 N3         -3.1585   -0.9378    3.3338 N.pl3     1 <0>        -0.4856
     34 C25        -2.6135    0.2777    3.9529 C.3       1 <0>         0.0381
     35 C26        -2.5205    1.3862    2.8990 C.3       1 <0>         0.1188
     36 C27        -3.4116   -1.9190    4.2951 C.ar      1 <0>         0.1091
     37 C28        -3.1382   -1.6687    5.6339 C.ar      1 <0>        -0.1694
     38 C29        -3.3941   -2.6393    6.5824 C.ar      1 <0>        -0.0923
     39 C30        -3.9120   -3.8630    6.1995 C.ar      1 <0>        -0.1440
     40 C31        -4.1804   -4.1174    4.8670 C.ar      1 <0>        -0.0947
     41 C32        -3.9318   -3.1493    3.9139 C.ar      1 <0>        -0.1397
     42 H3          5.9195   -0.6580    6.4275 H         1 <0>         0.0671
     43 H4          5.5629    0.7597    7.4430 H         1 <0>         0.0792
     44 H5          4.3726   -0.5562    7.3022 H         1 <0>         0.0663
     45 H6          5.2625    1.2887    5.0392 H         1 <0>         0.0623
     46 H7          3.7156    1.3905    5.9139 H         1 <0>         0.0611
     47 H8          3.7185    2.2546    4.0076 H         1 <0>         0.1362
     48 H9          1.7107   -0.9010    0.8142 H         1 <0>         0.1319
     49 H10         1.1442   -2.6362    1.8355 H         1 <0>         0.0561
     50 H11         2.6927   -2.7414    0.9641 H         1 <0>         0.0617
     51 H12         1.8883   -4.9921    1.6245 H         1 <0>         0.0790
     52 H13         3.4079   -4.5868    2.4581 H         1 <0>         0.0679
     53 H14         1.8594   -4.4815    3.3294 H         1 <0>         0.0662
     54 H15        -1.9547   -0.1538   -1.4356 H         1 <0>         0.1303
     55 H16        -3.1695    0.7287   -3.3864 H         1 <0>         0.1328
     56 H17        -2.6760    2.9814   -4.2407 H         1 <0>         0.1345
     57 H18        -0.9417    4.3590   -3.1657 H         1 <0>         0.1395
     58 H19         2.1399    4.9258    0.4122 H         1 <0>         0.0984
     59 H20         3.4170    3.7736   -0.0186 H         1 <0>         0.0628
     60 H21         1.7900    3.9425    2.5095 H         1 <0>         0.0909
     61 H22         3.5520    3.9574    2.3127 H         1 <0>         0.0860
     62 H23        -3.1306   -0.2931    0.6696 H         1 <0>         0.0849
     63 H24        -1.4173   -0.7261    0.4294 H         1 <0>         0.0891
     64 H25        -1.2776   -1.6314    2.7047 H         1 <0>         0.0501
     65 H26        -2.6700   -2.3766    1.8826 H         1 <0>         0.0964
     66 H27        -1.6202    0.0694    4.3504 H         1 <0>         0.0518
     67 H28        -3.2694    0.5993    4.7620 H         1 <0>         0.0962
     68 H29        -2.0119    2.2523    3.3224 H         1 <0>         0.1005
     69 H30        -3.5222    1.6685    2.5750 H         1 <0>         0.0778
     70 H31        -2.7296   -0.7148    5.9331 H         1 <0>         0.1250
     71 H32        -3.1856   -2.4440    7.6239 H         1 <0>         0.1224
     72 H33        -4.1070   -4.6220    6.9427 H         1 <0>         0.1216
     73 H34        -4.5852   -5.0740    4.5713 H         1 <0>         0.1244
     74 H35        -4.1420   -3.3484    2.8734 H         1 <0>         0.1243
@<TRIPOS>BOND
     1    1    2 1
     2    1   42 1
     3    1   43 1
     4    1   44 1
     5    2    3 1
     6    2   45 1
     7    2   46 1
     8    3    4 1
     9    4    9 ar
    10    4    5 ar
    11    5    6 ar
    12    5   47 1
    13    6   27 1
    14    6    7 ar
    15    7    8 ar
    16    7   13 1
    17    8    9 ar
    18    8   48 1
    19    9   10 1
    20   10   11 1
    21   11   12 1
    22   11   49 1
    23   11   50 1
    24   12   51 1
    25   12   52 1
    26   12   53 1
    27   13   14 1
    28   13   25 1
    29   13   15 1
    30   15   16 1
    31   15   17 1
    32   15   28 1
    33   17   22 ar
    34   17   18 ar
    35   18   19 ar
    36   18   54 1
    37   19   20 ar
    38   19   55 1
    39   20   21 ar
    40   20   56 1
    41   21   22 ar
    42   21   57 1
    43   22   23 1
    44   23   24 2
    45   23   25 am
    46   25   26 1
    47   26   27 1
    48   26   58 1
    49   26   59 1
    50   27   60 1
    51   27   61 1
    52   28   29 2
    53   28   30 am
    54   30   35 1
    55   30   31 1
    56   31   32 1
    57   31   62 1
    58   31   63 1
    59   32   33 1
    60   32   64 1
    61   32   65 1
    62   33   34 1
    63   33   36 1
    64   34   35 1
    65   34   66 1
    66   34   67 1
    67   35   68 1
    68   35   69 1
    69   36   41 ar
    70   36   37 ar
    71   37   38 ar
    72   37   70 1
    73   38   39 ar
    74   38   71 1
    75   39   40 ar
    76   39   72 1
    77   40   41 ar
    78   40   73 1
    79   41   74 1
@<TRIPOS>MOLECULE
ZINC16612943
   66    70     0     0     0
SMALL
USER_CHARGES
2-[8-(cyclopropanecarbonyl)-1-oxo-4-phenyl-2,4,8-triazaspiro[4.5]decan-2-yl]-N-[2-(2,4-dichlorophenyl)ethyl]acetamide
@<TRIPOS>ATOM
      1 C1          5.8898    0.8481   -1.5575 C.ar      1 <0>        -0.1348
      2 C2          4.9474    1.8326   -1.7918 C.ar      1 <0>        -0.0924
      3 C3          3.7303    1.7947   -1.1403 C.ar      1 <0>        -0.1665
      4 C4          3.4532    0.7661   -0.2487 C.ar      1 <0>         0.0976
      5 C5          4.4042   -0.2183   -0.0117 C.ar      1 <0>        -0.1303
      6 C6          5.6172   -0.1773   -0.6706 C.ar      1 <0>        -0.0959
      7 N1          2.2234    0.7250    0.4123 N.pl3     1 <0>        -0.4475
      8 C7          1.2948    1.7441   -0.1301 C.3       1 <0>         0.2533
      9 N2         -0.0474    1.1526   -0.0606 N.am      1 <0>        -0.6101
     10 C8          0.0550   -0.1848    0.0892 C.2       1 <0>         0.5389
     11 O1         -0.8717   -0.9632    0.1676 O.2       1 <0>        -0.4960
     12 C9          1.5192   -0.5465    0.1425 C.3       1 <0>         0.0734
     13 C10         1.9738   -1.1218   -1.1958 C.3       1 <0>        -0.1514
     14 C11         1.1988   -2.4121   -1.4844 C.3       1 <0>         0.1106
     15 N3          1.3513   -3.3204   -0.3395 N.am      1 <0>        -0.6025
     16 C12         1.0047   -2.8325    1.0023 C.3       1 <0>         0.1026
     17 C13         1.7811   -1.5388    1.2717 C.3       1 <0>        -0.1070
     18 C14         1.8015   -4.5782   -0.5170 C.2       1 <0>         0.5458
     19 O2          1.9237   -5.3187    0.4357 O.2       1 <0>        -0.5385
     20 C15         2.1531   -5.0647   -1.8994 C.3       1 <0>        -0.1989
     21 C16         1.2532   -6.1338   -2.5222 C.3       1 <0>        -0.1512
     22 C17         2.6567   -6.5030   -2.0353 C.3       1 <0>        -0.1464
     23 C18        -1.3050    1.8991   -0.1470 C.3       1 <0>         0.1145
     24 C19        -1.7392    2.3136    1.2353 C.2       1 <0>         0.4915
     25 O3         -1.0646    2.0148    2.1979 O.2       1 <0>        -0.5166
     26 N4         -2.8772    3.0162    1.4018 N.am      1 <0>        -0.7296
     27 C20        -3.2993    3.4191    2.7456 C.3       1 <0>         0.1247
     28 C21        -4.6126    4.1987    2.6554 C.3       1 <0>        -0.0960
     29 C22        -5.0468    4.6131    4.0377 C.ar      1 <0>        -0.0712
     30 C23        -4.8092    5.9013    4.4795 C.ar      1 <0>        -0.0877
     31 C24        -5.2075    6.2822    5.7469 C.ar      1 <0>        -0.1026
     32 C25        -5.8444    5.3742    6.5744 C.ar      1 <0>        -0.0247
     33 C26        -6.0824    4.0853    6.1329 C.ar      1 <0>        -0.0999
     34 C27        -5.6882    3.7061    4.8621 C.ar      1 <0>        -0.0214
     35 Cl1        -5.9924    2.0904    4.3046 Cl        1 <0>        -0.0486
     36 Cl2        -6.3442    5.8527    8.1666 Cl        1 <0>        -0.0532
     37 H1          6.8409    0.8803   -2.0680 H         1 <0>         0.1240
     38 H2          5.1636    2.6322   -2.4848 H         1 <0>         0.1256
     39 H3          2.9948    2.5641   -1.3235 H         1 <0>         0.1296
     40 H4          4.1936   -1.0170    0.6842 H         1 <0>         0.1299
     41 H5          6.3554   -0.9446   -0.4898 H         1 <0>         0.1271
     42 H6          1.5510    1.9718   -1.1648 H         1 <0>         0.0764
     43 H7          1.3372    2.6497    0.4751 H         1 <0>         0.1034
     44 H8          1.7813   -0.3973   -1.9871 H         1 <0>         0.0806
     45 H9          3.0409   -1.3401   -1.1541 H         1 <0>         0.1010
     46 H10         1.5976   -2.8851   -2.3818 H         1 <0>         0.0940
     47 H11         0.1434   -2.1823   -1.6306 H         1 <0>         0.0778
     48 H12         1.2756   -3.5827    1.7452 H         1 <0>         0.0976
     49 H13        -0.0658   -2.6344    1.0564 H         1 <0>         0.0941
     50 H14         2.8475   -1.7586    1.3226 H         1 <0>         0.0827
     51 H15         1.4531   -1.1080    2.2177 H         1 <0>         0.0906
     52 H16         2.5814   -4.3164   -2.5663 H         1 <0>         0.1238
     53 H17         0.4068   -6.4854   -1.9322 H         1 <0>         0.0998
     54 H18         1.0897   -6.0891   -3.5989 H         1 <0>         0.1050
     55 H19         3.4159   -6.7011   -2.7919 H         1 <0>         0.1038
     56 H20         2.7340   -7.0973   -1.1249 H         1 <0>         0.1083
     57 H21        -1.1593    2.7863   -0.7633 H         1 <0>         0.1154
     58 H22        -2.0723    1.2677   -0.5949 H         1 <0>         0.1185
     59 H23        -3.4167    3.2552    0.6320 H         1 <0>         0.4020
     60 H24        -3.4450    2.5319    3.3619 H         1 <0>         0.0742
     61 H25        -2.5319    4.0506    3.1935 H         1 <0>         0.0717
     62 H26        -4.4669    5.0859    2.0391 H         1 <0>         0.0884
     63 H27        -5.3800    3.5672    2.2076 H         1 <0>         0.0898
     64 H28        -4.3124    6.6104    3.8339 H         1 <0>         0.1440
     65 H29        -5.0219    7.2888    6.0914 H         1 <0>         0.1428
     66 H30        -6.5798    3.3764    6.7783 H         1 <0>         0.1463
@<TRIPOS>BOND
     1    1    6 ar
     2    1    2 ar
     3    1   37 1
     4    2    3 ar
     5    2   38 1
     6    3    4 ar
     7    3   39 1
     8    4    5 ar
     9    4    7 1
    10    5    6 ar
    11    5   40 1
    12    6   41 1
    13    7   12 1
    14    7    8 1
    15    8    9 1
    16    8   42 1
    17    8   43 1
    18    9   10 am
    19    9   23 1
    20   10   11 2
    21   10   12 1
    22   12   17 1
    23   12   13 1
    24   13   14 1
    25   13   44 1
    26   13   45 1
    27   14   15 1
    28   14   46 1
    29   14   47 1
    30   15   16 1
    31   15   18 am
    32   16   17 1
    33   16   48 1
    34   16   49 1
    35   17   50 1
    36   17   51 1
    37   18   19 2
    38   18   20 1
    39   20   22 1
    40   20   21 1
    41   20   52 1
    42   21   22 1
    43   21   53 1
    44   21   54 1
    45   22   55 1
    46   22   56 1
    47   23   24 1
    48   23   57 1
    49   23   58 1
    50   24   25 2
    51   24   26 am
    52   26   27 1
    53   26   59 1
    54   27   28 1
    55   27   60 1
    56   27   61 1
    57   28   29 1
    58   28   62 1
    59   28   63 1
    60   29   34 ar
    61   29   30 ar
    62   30   31 ar
    63   30   64 1
    64   31   32 ar
    65   31   65 1
    66   32   33 ar
    67   32   36 1
    68   33   34 ar
    69   33   66 1
    70   34   35 1
@<TRIPOS>MOLECULE
ZINC33445635
   64    68     0     0     0
SMALL
USER_CHARGES
(5E)-5-[[2-[(2R,6R)-2,6-dimethylmorpholin-4-yl]-7-methyl-4-oxo-pyrido[1,2-a]pyrimidin-3-yl]methylene]-3-phenethyl-2-thioxo-thiazolidin-4-one
@<TRIPOS>ATOM
      1 C1         -0.2771   -5.1994   -0.1552 C.3       1 <0>        -0.1118
      2 C2          0.9109   -4.2727   -0.1258 C.2       1 <0>        -0.1320
      3 C3          2.2064   -4.7916   -0.2557 C.2       1 <0>        -0.0137
      4 C4          3.2754   -3.9458   -0.2289 C.2       1 <0>        -0.1410
      5 C5          3.0632   -2.5645   -0.0708 C.2       1 <0>         0.4240
      6 N1          4.1147   -1.7451   -0.0462 N.2       1 <0>        -0.5725
      7 C6          3.9727   -0.4358    0.1002 C.2       1 <0>         0.4355
      8 C7          2.6762    0.1145    0.2344 C.2       1 <0>        -0.3385
      9 C8          1.5677   -0.7652    0.2124 C.2       1 <0>         0.5503
     10 O1          0.4330   -0.3353    0.3293 O.2       1 <0>        -0.5134
     11 N2          1.7877   -2.0882    0.0540 N.am      1 <0>        -0.4224
     12 C9          0.7254   -2.9421    0.0255 C.2       1 <0>         0.1045
     13 C10         2.4929    1.5080    0.3926 C.2       1 <0>         0.1729
     14 C11         1.8711    2.2298   -0.5848 C.2       1 <0>        -0.2567
     15 C12         1.3841    1.8048   -1.8537 C.2       1 <0>         0.5455
     16 O2          1.4923    0.6445   -2.2097 O.2       1 <0>        -0.4613
     17 N3          0.8164    2.7057   -2.6366 N.am      1 <0>        -0.5226
     18 C13         0.6923    3.9919   -2.2396 C.2       1 <0>         0.2843
     19 S1         -0.0051    5.3116   -3.0779 S.2       1 <0>        -0.3395
     20 S2          1.4470    3.9660   -0.6206 S.3       1 <0>         0.0631
     21 C14         0.3100    2.3036   -3.9511 C.3       1 <0>         0.0914
     22 C15        -1.1499    1.8641   -3.8227 C.3       1 <0>        -0.0907
     23 C16        -1.6708    1.4505   -5.1749 C.ar      1 <0>        -0.0827
     24 C17        -2.2714    2.3837   -5.9992 C.ar      1 <0>        -0.1083
     25 C18        -2.7449    2.0053   -7.2416 C.ar      1 <0>        -0.1173
     26 C19        -2.6273    0.6916   -7.6554 C.ar      1 <0>        -0.1191
     27 C20        -2.0315   -0.2427   -6.8289 C.ar      1 <0>        -0.1193
     28 C21        -1.5532    0.1368   -5.5887 C.ar      1 <0>        -0.1127
     29 N4          5.0799    0.3840    0.1211 N.pl3     1 <0>        -0.4693
     30 C22         5.0972    1.2757   -1.0476 C.3       1 <0>         0.0249
     31 C23         6.3084    2.2074   -0.9539 C.3       1 <0>         0.0921
     32 H1          6.4196    2.8130   -1.8654 H         1 <0>         0.1155
     33 O3          7.5002    1.4232   -0.8535 O.3       1 <0>        -0.3775
     34 C24         7.5173    0.5436    0.2740 C.3       1 <0>         0.0793
     35 H2          7.4588    1.1890    1.1628 H         1 <0>         0.0744
     36 C25         6.3183   -0.4050    0.1927 C.3       1 <0>         0.0322
     37 C26         8.8133   -0.2695    0.2680 C.3       1 <0>        -0.1448
     38 C27         6.1759    3.0961    0.2845 C.3       1 <0>        -0.1823
     39 H3          0.0692   -6.2354   -0.2846 H         1 <0>         0.0806
     40 H4         -0.9352   -4.9254   -0.9929 H         1 <0>         0.0801
     41 H5         -0.8324   -5.1138    0.7905 H         1 <0>         0.0807
     42 H6          2.3568   -5.8542   -0.3767 H         1 <0>         0.1585
     43 H7          4.2783   -4.3339   -0.3292 H         1 <0>         0.1712
     44 H8         -0.2764   -2.5509    0.1246 H         1 <0>         0.1836
     45 H9          2.8514    2.0100    1.3033 H         1 <0>         0.1584
     46 H10         0.3772    3.1539   -4.6457 H         1 <0>         0.1149
     47 H11         0.9122    1.4674   -4.3359 H         1 <0>         0.1040
     48 H12        -1.2171    1.0138   -3.1281 H         1 <0>         0.0776
     49 H13        -1.7521    2.7003   -3.4379 H         1 <0>         0.0847
     50 H14        -2.3673    3.4091   -5.6741 H         1 <0>         0.1271
     51 H15        -3.2108    2.7351   -7.8871 H         1 <0>         0.1245
     52 H16        -3.0013    0.3950   -8.6242 H         1 <0>         0.1225
     53 H17        -1.9399   -1.2691   -7.1520 H         1 <0>         0.1220
     54 H18        -1.0880   -0.5932   -4.9428 H         1 <0>         0.1188
     55 H19         5.1647    0.6747   -1.9664 H         1 <0>         0.0623
     56 H20         4.1735    1.8727   -1.0670 H         1 <0>         0.0959
     57 H21         6.2938   -1.0456    1.0866 H         1 <0>         0.0991
     58 H22         6.4054   -1.0331   -0.7062 H         1 <0>         0.0719
     59 H23         8.8258   -0.9458    1.1354 H         1 <0>         0.0752
     60 H24         9.6744    0.4128    0.3225 H         1 <0>         0.0700
     61 H25         8.8714   -0.8600   -0.6582 H         1 <0>         0.0658
     62 H26         7.0467    3.7650    0.3507 H         1 <0>         0.0682
     63 H27         6.1285    2.4658    1.1847 H         1 <0>         0.0723
     64 H28         5.2573    3.6964    0.2084 H         1 <0>         0.0695
@<TRIPOS>BOND
     1    1    2 1
     2    1   39 1
     3    1   40 1
     4    1   41 1
     5    2   12 2
     6    2    3 1
     7    3    4 2
     8    3   42 1
     9    4    5 1
    10    4   43 1
    11    5   11 1
    12    5    6 2
    13    6    7 1
    14    7    8 2
    15    7   29 1
    16    8    9 1
    17    8   13 1
    18    9   10 2
    19    9   11 am
    20   11   12 1
    21   12   44 1
    22   13   14 2
    23   13   45 1
    24   14   20 1
    25   14   15 1
    26   15   16 2
    27   15   17 am
    28   17   18 1
    29   17   21 1
    30   18   19 2
    31   18   20 1
    32   21   22 1
    33   21   46 1
    34   21   47 1
    35   22   23 1
    36   22   48 1
    37   22   49 1
    38   23   28 ar
    39   23   24 ar
    40   24   25 ar
    41   24   50 1
    42   25   26 ar
    43   25   51 1
    44   26   27 ar
    45   26   52 1
    46   27   28 ar
    47   27   53 1
    48   28   54 1
    49   29   36 1
    50   29   30 1
    51   30   31 1
    52   30   55 1
    53   30   56 1
    54   31   32 1
    55   31   33 1
    56   31   38 1
    57   33   34 1
    58   34   35 1
    59   34   36 1
    60   34   37 1
    61   36   57 1
    62   36   58 1
    63   37   59 1
    64   37   60 1
    65   37   61 1
    66   38   62 1
    67   38   63 1
    68   38   64 1
@<TRIPOS>MOLECULE
ZINC39483298
   68    71     0     0     0
SMALL
USER_CHARGES

@<TRIPOS>ATOM
      1 C1         -0.2594    3.1392    2.0909 C.3       1 <0>        -0.1426
      2 C2          0.0891    1.8891    1.2805 C.3       1 <0>        -0.0744
      3 C3          0.7955    0.8963    2.1673 C.ar      1 <0>        -0.0742
      4 C4          2.1709    0.8598    2.2056 C.ar      1 <0>        -0.0731
      5 C5          2.8361   -0.0495    3.0177 C.ar      1 <0>        -0.1336
      6 C6          2.1309   -0.9307    3.8086 C.ar      1 <0>        -0.0446
      7 C7          0.7383   -0.9074    3.7908 C.ar      1 <0>        -0.1971
      8 C8          0.0566    0.0119    2.9594 C.ar      1 <0>         0.1642
      9 N1         -1.2868   -0.0029    2.9365 N.2       1 <0>        -0.5150
     10 C9         -1.9955   -0.8160    3.6932 C.2       1 <0>         0.4393
     11 N2         -1.4166   -1.6813    4.5878 N.am      1 <0>        -0.5362
     12 C10        -0.0642   -1.8134    4.6217 C.2       1 <0>         0.5476
     13 O1          0.4664   -2.6484    5.3308 O.2       1 <0>        -0.5069
     14 C11        -2.2037   -2.4544    5.5397 C.3       1 <0>         0.0928
     15 C12        -3.6148   -2.7418    5.0800 C.3       1 <0>        -0.1314
     16 C13        -4.3219   -1.5074    4.5468 C.3       1 <0>        -0.0984
     17 C14        -3.4573   -0.7951    3.5473 C.2       1 <0>        -0.0940
     18 C15        -4.0221   -0.1366    2.5161 C.2       1 <0>        -0.0310
     19 C16        -5.4845    0.0228    2.4568 C.ar      1 <0>        -0.0992
     20 C17        -6.2245    0.1617    3.6351 C.ar      1 <0>         0.0344
     21 C18        -7.5939    0.3106    3.5714 C.ar      1 <0>        -0.6769
     22 C19        -8.2360    0.3227    2.3455 C.ar      1 <0>         0.0783
     23 C20        -7.5105    0.1857    1.1749 C.ar      1 <0>        -0.6759
     24 C21        -6.1398    0.0418    1.2218 C.ar      1 <0>         0.0507
     25 S1         -8.3395    0.2027   -0.3798 S.o2      1 <0>         2.4873
     26 O2         -7.4956   -0.5401   -1.2489 O.2       1 <0>        -0.9248
     27 O3         -9.6574   -0.2445   -0.0929 O.2       1 <0>        -0.9260
     28 C22        -8.3657    1.9475   -0.8751 C.3       1 <0>        -0.5669
     29 C23        -6.9310    2.4659   -0.9931 C.3       1 <0>        -0.1478
     30 C24        -9.0698    2.0835   -2.2267 C.3       1 <0>        -0.1476
     31 S2         -8.5287    0.4853    5.0548 S.o2      1 <0>         2.4866
     32 O4         -9.8251    0.0061    4.7249 O.2       1 <0>        -0.9255
     33 O5         -7.7498   -0.1606    6.0524 O.2       1 <0>        -0.9256
     34 C25        -8.5830    2.2719    5.3639 C.3       1 <0>        -0.5672
     35 C26        -9.2700    2.5368    6.7051 C.3       1 <0>        -0.1475
     36 C27        -7.1575    2.8263    5.4028 C.3       1 <0>        -0.1484
     37 H1          0.6551    3.5863    2.4803 H         1 <0>         0.0518
     38 H2         -0.7704    3.8572    1.4494 H         1 <0>         0.0581
     39 H3         -0.9113    2.8645    2.9201 H         1 <0>         0.0563
     40 H4         -0.8255    1.4419    0.8910 H         1 <0>         0.0817
     41 H5          0.7410    2.1637    0.4512 H         1 <0>         0.0709
     42 H6          2.7398    1.5464    1.5963 H         1 <0>         0.1345
     43 H7          3.9159   -0.0664    3.0292 H         1 <0>         0.1347
     44 H8          2.6547   -1.6350    4.4379 H         1 <0>         0.1375
     45 H9         -1.6973   -3.4026    5.7201 H         1 <0>         0.1032
     46 H10        -2.2498   -1.9046    6.4797 H         1 <0>         0.0821
     47 H11        -3.5819   -3.4956    4.2934 H         1 <0>         0.0765
     48 H12        -4.1847   -3.1381    5.9204 H         1 <0>         0.1021
     49 H13        -5.2543   -1.8059    4.0677 H         1 <0>         0.0961
     50 H14        -4.5434   -0.8341    5.3749 H         1 <0>         0.0938
     51 H15        -3.4020    0.2742    1.7331 H         1 <0>         0.1545
     52 H16        -5.7248    0.1522    4.5925 H         1 <0>         0.1606
     53 H17        -9.3088    0.4393    2.3021 H         1 <0>         0.1623
     54 H18        -5.5745   -0.0605    0.3073 H         1 <0>         0.1579
     55 H19        -8.9020    2.5299   -0.1259 H         1 <0>         0.1416
     56 H20        -6.9468    3.5143   -1.2907 H         1 <0>         0.0848
     57 H21        -6.4294    2.3690   -0.0302 H         1 <0>         0.0693
     58 H22        -6.3948    1.8835   -1.7424 H         1 <0>         0.0807
     59 H23       -10.0919    1.7143   -2.1426 H         1 <0>         0.0762
     60 H24        -9.0856    3.1320   -2.5243 H         1 <0>         0.0887
     61 H25        -8.5336    1.5012   -2.9759 H         1 <0>         0.0765
     62 H26        -9.1417    2.7618    4.5664 H         1 <0>         0.1426
     63 H27        -8.7113    2.0469    7.5025 H         1 <0>         0.0777
     64 H28        -9.3026    3.6104    6.8908 H         1 <0>         0.0889
     65 H29       -10.2856    2.1419    6.6773 H         1 <0>         0.0751
     66 H30        -7.1901    3.8999    5.5886 H         1 <0>         0.0854
     67 H31        -6.5988    2.3364    6.2003 H         1 <0>         0.0787
     68 H32        -6.6680    2.6376    4.4474 H         1 <0>         0.0699
@<TRIPOS>BOND
     1    1    2 1
     2    1   37 1
     3    1   38 1
     4    1   39 1
     5    2    3 1
     6    2   40 1
     7    2   41 1
     8    3    8 ar
     9    3    4 ar
    10    4    5 ar
    11    4   42 1
    12    5    6 ar
    13    5   43 1
    14    6    7 ar
    15    6   44 1
    16    7   12 1
    17    7    8 ar
    18    8    9 1
    19    9   10 2
    20   10   17 1
    21   10   11 1
    22   11   12 am
    23   11   14 1
    24   12   13 2
    25   14   15 1
    26   14   45 1
    27   14   46 1
    28   15   16 1
    29   15   47 1
    30   15   48 1
    31   16   17 1
    32   16   49 1
    33   16   50 1
    34   17   18 2
    35   18   19 1
    36   18   51 1
    37   19   24 ar
    38   19   20 ar
    39   20   21 ar
    40   20   52 1
    41   21   22 ar
    42   21   31 1
    43   22   23 ar
    44   22   53 1
    45   23   24 ar
    46   23   25 1
    47   24   54 1
    48   25   26 2
    49   25   27 2
    50   25   28 1
    51   28   29 1
    52   28   30 1
    53   28   55 1
    54   29   56 1
    55   29   57 1
    56   29   58 1
    57   30   59 1
    58   30   60 1
    59   30   61 1
    60   31   32 2
    61   31   33 2
    62   31   34 1
    63   34   35 1
    64   34   36 1
    65   34   62 1
    66   35   63 1
    67   35   64 1
    68   35   65 1
    69   36   66 1
    70   36   67 1
    71   36   68 1
@<TRIPOS>MOLECULE
ZINC35432214
   62    66     0     0     0
SMALL
USER_CHARGES

@<TRIPOS>ATOM
      1 C1          1.2642    1.2271   -0.1580 C.3       1 <0>        -0.1160
      2 C2          0.6279   -0.1366   -0.0790 C.ar      1 <0>        -0.0694
      3 C3          0.0386   -0.6900   -1.2012 C.ar      1 <0>        -0.1313
      4 C4         -0.5459   -1.9411   -1.1330 C.ar      1 <0>        -0.0957
      5 C5         -0.5429   -2.6425    0.0570 C.ar      1 <0>        -0.1194
      6 C6          0.0478   -2.0897    1.1855 C.ar      1 <0>         0.1462
      7 C7          0.6388   -0.8349    1.1123 C.ar      1 <0>        -0.1268
      8 N1          0.0521   -2.7974    2.3926 N.am      1 <0>        -0.6591
      9 C8          0.1503   -2.1345    3.5620 C.2       1 <0>         0.5343
     10 O1          0.1340   -0.9218    3.5749 O.2       1 <0>        -0.4980
     11 C9          0.2802   -2.9001    4.8535 C.3       1 <0>        -0.1593
     12 S1          0.3911   -1.7344    6.2389 S.3       1 <0>         0.1180
     13 C10         0.5366   -2.7702    7.6569 C.2       1 <0>         0.3657
     14 N2          0.5471   -4.0795    7.5072 N.2       1 <0>        -0.5040
     15 C11         0.6560   -4.8831    8.5584 C.2       1 <0>         0.1234
     16 C12         0.7643   -4.3889    9.8691 C.2       1 <0>        -0.2554
     17 C13         0.8766   -5.3963   10.9267 C.2       1 <0>        -0.0248
     18 C14         0.8631   -6.6882   10.5408 C.2       1 <0>        -0.2112
     19 S2          0.7078   -6.6440    8.7765 S.3       1 <0>         0.1726
     20 C15         0.9553   -7.8959   11.4254 C.3       1 <0>         0.1982
     21 N3          1.2969   -7.4196   12.7800 N.am      1 <0>        -0.6152
     22 C16         0.6126   -6.2117   13.2657 C.3       1 <0>         0.1088
     23 C17         1.0085   -5.0159   12.3985 C.3       1 <0>        -0.0763
     24 C18         2.2005   -8.0666   13.5425 C.2       1 <0>         0.5195
     25 O2          2.4635   -7.6545   14.6524 O.2       1 <0>        -0.5380
     26 C19         2.8841   -9.3020   13.0158 C.3       1 <0>        -0.1770
     27 C20         0.7503   -2.9641   10.0014 C.2       1 <0>         0.5634
     28 O3          0.8394   -2.4446   11.1006 O.2       1 <0>        -0.5079
     29 N4          0.6425   -2.2056    8.8950 N.am      1 <0>        -0.5085
     30 C21         0.6328   -0.7462    9.0224 C.3       1 <0>         0.1732
     31 C22        -0.7851   -0.2665    9.1965 C.2       1 <0>        -0.0615
     32 C23        -1.4223   -0.1049   10.3701 C.2       1 <0>        -0.1607
     33 C24        -2.7239    0.3581   10.0691 C.2       1 <0>        -0.2207
     34 C25        -2.8042    0.4517    8.7296 C.2       1 <0>        -0.0192
     35 O4         -1.6250    0.0776    8.2067 O.3       1 <0>        -0.1619
     36 C26        -1.1807   -4.0059    0.1306 C.3       1 <0>        -0.1162
     37 H1          2.3123    1.1233   -0.4388 H         1 <0>         0.0717
     38 H2          0.7455    1.8273   -0.9056 H         1 <0>         0.0681
     39 H3          1.1951    1.7171    0.8132 H         1 <0>         0.0688
     40 H4          0.0347   -0.1435   -2.1327 H         1 <0>         0.1241
     41 H5         -1.0055   -2.3704   -2.0110 H         1 <0>         0.1274
     42 H6          1.1027   -0.4040    1.9872 H         1 <0>         0.1457
     43 H7         -0.0156   -3.7650    2.3878 H         1 <0>         0.4150
     44 H8         -0.5922   -3.5400    4.9859 H         1 <0>         0.1355
     45 H9          1.1801   -3.5145    4.8227 H         1 <0>         0.1369
     46 H10        -0.0027   -8.4156   11.4452 H         1 <0>         0.0945
     47 H11         1.7341   -8.5652   11.0598 H         1 <0>         0.1062
     48 H12        -0.4661   -6.3586   13.2110 H         1 <0>         0.0753
     49 H13         0.9010   -6.0218   14.2996 H         1 <0>         0.1022
     50 H14         2.0406   -4.7376   12.6115 H         1 <0>         0.0854
     51 H15         0.3513   -4.1743   12.6173 H         1 <0>         0.1006
     52 H16         3.7983   -9.0174   12.4950 H         1 <0>         0.0963
     53 H17         3.1302   -9.9633   13.8466 H         1 <0>         0.0969
     54 H18         2.2183   -9.8191   12.3248 H         1 <0>         0.0826
     55 H19         1.2246   -0.4533    9.8896 H         1 <0>         0.1409
     56 H20         1.0595   -0.3002    8.1240 H         1 <0>         0.1162
     57 H21        -1.0176   -0.2932   11.3535 H         1 <0>         0.1536
     58 H22        -3.5040    0.5915   10.7785 H         1 <0>         0.1519
     59 H23        -3.6688    0.7764    8.1699 H         1 <0>         0.2071
     60 H24        -0.4386   -4.7675   -0.1090 H         1 <0>         0.0723
     61 H25        -1.5624   -4.1746    1.1376 H         1 <0>         0.0617
     62 H26        -2.0022   -4.0618   -0.5835 H         1 <0>         0.0735
@<TRIPOS>BOND
     1    1    2 1
     2    1   37 1
     3    1   38 1
     4    1   39 1
     5    2    7 ar
     6    2    3 ar
     7    3    4 ar
     8    3   40 1
     9    4    5 ar
    10    4   41 1
    11    5    6 ar
    12    5   36 1
    13    6    7 ar
    14    6    8 1
    15    7   42 1
    16    8    9 am
    17    8   43 1
    18    9   10 2
    19    9   11 1
    20   11   12 1
    21   11   44 1
    22   11   45 1
    23   12   13 1
    24   13   29 1
    25   13   14 2
    26   14   15 1
    27   15   19 1
    28   15   16 2
    29   16   17 1
    30   16   27 1
    31   17   23 1
    32   17   18 2
    33   18   19 1
    34   18   20 1
    35   20   21 1
    36   20   46 1
    37   20   47 1
    38   21   22 1
    39   21   24 am
    40   22   23 1
    41   22   48 1
    42   22   49 1
    43   23   50 1
    44   23   51 1
    45   24   25 2
    46   24   26 1
    47   26   52 1
    48   26   53 1
    49   26   54 1
    50   27   28 2
    51   27   29 am
    52   29   30 1
    53   30   31 1
    54   30   55 1
    55   30   56 1
    56   31   35 1
    57   31   32 2
    58   32   33 1
    59   32   57 1
    60   33   34 2
    61   33   58 1
    62   34   35 1
    63   34   59 1
    64   36   60 1
    65   36   61 1
    66   36   62 1
@<TRIPOS>MOLECULE
ZINC00931346
   74    78     0     0     0
SMALL
USER_CHARGES
(3R)-N-[(1S)-2-(cyclohexylamino)-1-(1,3-dimethylpyrazol-4-yl)-2-oxo-ethyl]-N-(3,4-dimethylphenyl)-2,3-dihydro-1,4-benzodioxine-3-carboxamide
@<TRIPOS>ATOM
      1 C1         -5.3615    4.7049    3.1259 C.3       1 <0>        -0.1201
      2 C2         -4.4181    5.5840    2.3460 C.ar      1 <0>        -0.0747
      3 C3         -4.7493    5.9857    1.0647 C.ar      1 <0>        -0.1125
      4 C4         -3.8898    6.7962    0.3497 C.ar      1 <0>        -0.1137
      5 C5         -2.6865    7.1990    0.9145 C.ar      1 <0>         0.1228
      6 C6         -2.3569    6.7939    2.2011 C.ar      1 <0>        -0.0810
      7 C7         -3.2234    5.9875    2.9130 C.ar      1 <0>        -0.0775
      8 C8         -2.8664    5.5474    4.3094 C.3       1 <0>        -0.1176
      9 N1         -1.8109    8.0159    0.1906 N.am      1 <0>        -0.5385
     10 C9         -2.1522    9.4193   -0.0543 C.3       1 <0>         0.2109
     11 H1         -1.4091    9.8637   -0.7164 H         1 <0>         0.1310
     12 C10        -3.5120    9.5005   -0.6989 C.2       1 <0>        -0.2570
     13 C11        -4.6572    9.8938   -0.0949 C.2       1 <0>         0.0948
     14 N2         -5.6480    9.8272   -1.0086 N.pl3     1 <0>        -0.3659
     15 N3         -5.0934    9.3781   -2.2140 N.2       1 <0>        -0.2856
     16 C12        -3.8121    9.1885   -2.0289 C.2       1 <0>         0.0988
     17 C13        -2.8302    8.7119   -3.0680 C.3       1 <0>        -0.0809
     18 C14        -7.0551   10.1652   -0.7803 C.3       1 <0>         0.0991
     19 C15        -2.1709   10.1674    1.2538 C.2       1 <0>         0.5102
     20 O1         -2.2574    9.5588    2.2992 O.2       1 <0>        -0.5153
     21 N4         -2.0915   11.5128    1.2618 N.am      1 <0>        -0.7231
     22 C16        -2.0112   12.2343    2.5343 C.3       1 <0>         0.1486
     23 C17        -3.4217   12.4606    3.0822 C.3       1 <0>        -0.1269
     24 C18        -3.3378   13.2140    4.4112 C.3       1 <0>        -0.1170
     25 C19        -2.6540   14.5647    4.1894 C.3       1 <0>        -0.1224
     26 C20        -1.2435   14.3383    3.6416 C.3       1 <0>        -0.1161
     27 C21        -1.3274   13.5849    2.3126 C.3       1 <0>        -0.1273
     28 C22        -0.6536    7.5115   -0.2812 C.2       1 <0>         0.5375
     29 O2          0.1462    8.2397   -0.8300 O.2       1 <0>        -0.4965
     30 C23        -0.3532    6.0428   -0.1269 C.3       1 <0>         0.0399
     31 H2         -0.5087    5.7422    0.9092 H         1 <0>         0.1119
     32 C24        -1.2726    5.2272   -1.0459 C.3       1 <0>         0.0350
     33 O3         -0.9519    3.8411   -0.8848 O.3       1 <0>        -0.2955
     34 C25         0.3690    3.5133   -0.9020 C.ar      1 <0>         0.0453
     35 C26         0.7404    2.1947   -1.1196 C.ar      1 <0>        -0.1110
     36 C27         2.0772    1.8448   -1.1310 C.ar      1 <0>        -0.1144
     37 C28         3.0483    2.8094   -0.9362 C.ar      1 <0>        -0.1131
     38 C29         2.6853    4.1260   -0.7249 C.ar      1 <0>        -0.1095
     39 C30         1.3452    4.4833   -0.7081 C.ar      1 <0>         0.0513
     40 O4          1.0031    5.7850   -0.5061 O.3       1 <0>        -0.2803
     41 H3         -6.0517    5.3278    3.6949 H         1 <0>         0.0715
     42 H4         -5.9242    4.0748    2.4371 H         1 <0>         0.0667
     43 H5         -4.7910    4.0765    3.8098 H         1 <0>         0.0726
     44 H6         -5.6831    5.6685    0.6244 H         1 <0>         0.1236
     45 H7         -4.1511    7.1132   -0.6491 H         1 <0>         0.1241
     46 H8         -1.4238    7.1088    2.6445 H         1 <0>         0.1247
     47 H9         -3.2436    6.2757    5.0274 H         1 <0>         0.0727
     48 H10        -3.3147    4.5742    4.5094 H         1 <0>         0.0721
     49 H11        -1.7828    5.4741    4.4014 H         1 <0>         0.0655
     50 H12        -4.7599   10.2048    0.9343 H         1 <0>         0.1697
     51 H13        -2.8319    7.6223   -3.0968 H         1 <0>         0.0755
     52 H14        -3.1169    9.1016   -4.0447 H         1 <0>         0.0796
     53 H15        -1.8314    9.0671   -2.8140 H         1 <0>         0.0803
     54 H16        -7.2153   11.2209   -0.9993 H         1 <0>         0.0784
     55 H17        -7.6846    9.5594   -1.4320 H         1 <0>         0.0933
     56 H18        -7.3122    9.9668    0.2602 H         1 <0>         0.0887
     57 H19        -2.0876   12.0035    0.4250 H         1 <0>         0.4013
     58 H20        -1.4337   11.6476    3.2488 H         1 <0>         0.0877
     59 H21        -3.9992   13.0473    2.3678 H         1 <0>         0.0620
     60 H22        -3.9088   11.4984    3.2402 H         1 <0>         0.0658
     61 H23        -2.7603   12.6274    5.1256 H         1 <0>         0.0644
     62 H24        -4.3427   13.3753    4.8015 H         1 <0>         0.0644
     63 H25        -2.5943   15.1014    5.1362 H         1 <0>         0.0645
     64 H26        -3.2315   15.1513    3.4750 H         1 <0>         0.0624
     65 H27        -0.6660   13.7517    4.3560 H         1 <0>         0.0653
     66 H28        -0.7564   15.3005    3.4836 H         1 <0>         0.0682
     67 H29        -0.3226   13.4237    1.9223 H         1 <0>         0.0700
     68 H30        -1.9049   14.1716    1.5981 H         1 <0>         0.0683
     69 H31        -1.1128    5.5234   -2.0827 H         1 <0>         0.0839
     70 H32        -2.3135    5.3980   -0.7712 H         1 <0>         0.1286
     71 H33        -0.0162    1.4400   -1.2759 H         1 <0>         0.1359
     72 H34         2.3640    0.8169   -1.2969 H         1 <0>         0.1339
     73 H35         4.0924    2.5335   -0.9488 H         1 <0>         0.1343
     74 H36         3.4459    4.8775   -0.5723 H         1 <0>         0.1367
@<TRIPOS>BOND
     1    1    2 1
     2    1   41 1
     3    1   42 1
     4    1   43 1
     5    2    7 ar
     6    2    3 ar
     7    3    4 ar
     8    3   44 1
     9    4    5 ar
    10    4   45 1
    11    5    6 ar
    12    5    9 1
    13    6    7 ar
    14    6   46 1
    15    7    8 1
    16    8   47 1
    17    8   48 1
    18    8   49 1
    19    9   10 1
    20    9   28 am
    21   10   11 1
    22   10   12 1
    23   10   19 1
    24   12   16 1
    25   12   13 2
    26   13   14 1
    27   13   50 1
    28   14   15 1
    29   14   18 1
    30   15   16 2
    31   16   17 1
    32   17   51 1
    33   17   52 1
    34   17   53 1
    35   18   54 1
    36   18   55 1
    37   18   56 1
    38   19   20 2
    39   19   21 am
    40   21   22 1
    41   21   57 1
    42   22   27 1
    43   22   23 1
    44   22   58 1
    45   23   24 1
    46   23   59 1
    47   23   60 1
    48   24   25 1
    49   24   61 1
    50   24   62 1
    51   25   26 1
    52   25   63 1
    53   25   64 1
    54   26   27 1
    55   26   65 1
    56   26   66 1
    57   27   67 1
    58   27   68 1
    59   28   29 2
    60   28   30 1
    61   30   31 1
    62   30   40 1
    63   30   32 1
    64   32   33 1
    65   32   69 1
    66   32   70 1
    67   33   34 1
    68   34   39 ar
    69   34   35 ar
    70   35   36 ar
    71   35   71 1
    72   36   37 ar
    73   36   72 1
    74   37   38 ar
    75   37   73 1
    76   38   39 ar
    77   38   74 1
    78   39   40 1
@<TRIPOS>MOLECULE
ZINC02095839
   65    70     0     0     0
SMALL
USER_CHARGES
methyl (3R)-2-[2-[(4-methyl-6-oxo-7,8,9,10-tetrahydrobenzo[c]isochromen-3-yl)oxy]acetyl]-1,3,4,9-tetrahydropyrido[5,4-b]indole-3-carboxylate
@<TRIPOS>ATOM
      1 C1          3.4046   13.9754    2.0403 C.3       1 <0>        -0.1047
      2 C2          4.5104   13.0398    2.4562 C.ar      1 <0>        -0.1245
      3 C3          4.3321   11.6684    2.3671 C.ar      1 <0>         0.1767
      4 C4          5.3511   10.7960    2.7435 C.ar      1 <0>        -0.2216
      5 C5          6.5387   11.2800    3.2115 C.ar      1 <0>        -0.0233
      6 C6          6.7332   12.6622    3.3134 C.ar      1 <0>        -0.1788
      7 C7          5.7085   13.5472    2.9345 C.ar      1 <0>         0.1802
      8 O1          5.9059   14.8789    3.0353 O.3       1 <0>        -0.2634
      9 C8          7.0627   15.3792    3.4888 C.2       1 <0>         0.5119
     10 O2          7.1934   16.5879    3.5621 O.2       1 <0>        -0.4574
     11 C9          8.1396   14.5480    3.8857 C.2       1 <0>        -0.2124
     12 C10         8.0019   13.2063    3.8153 C.2       1 <0>         0.0328
     13 C11         9.0804   12.2456    4.2329 C.3       1 <0>        -0.0913
     14 C12        10.4326   12.9529    4.3082 C.3       1 <0>        -0.1222
     15 C13        10.2649   14.2232    5.1507 C.3       1 <0>        -0.1218
     16 C14         9.4037   15.2106    4.3657 C.3       1 <0>        -0.0613
     17 O3          3.1569   11.1711    1.9042 O.3       1 <0>        -0.2744
     18 C15         3.0382    9.7489    1.8310 C.3       1 <0>         0.0434
     19 C16         1.6761    9.3852    1.2986 C.2       1 <0>         0.5193
     20 O4          0.8849   10.2580    1.0101 O.2       1 <0>        -0.4731
     21 N1          1.3372    8.0901    1.1429 N.am      1 <0>        -0.6004
     22 C17         2.2326    7.0150    1.6039 C.3       1 <0>         0.1796
     23 C18         2.2870    5.9710    0.5098 C.2       1 <0>         0.0476
     24 C19         1.4501    5.9583   -0.5454 C.2       1 <0>        -0.1466
     25 C20         1.8074    4.8051   -1.3669 C.ar      1 <0>        -0.0977
     26 C21         1.3190    4.2688   -2.5604 C.ar      1 <0>        -0.0686
     27 C22         1.8954    3.1485   -3.0882 C.ar      1 <0>        -0.1422
     28 C23         2.9571    2.5300   -2.4419 C.ar      1 <0>        -0.0931
     29 C24         3.4548    3.0407   -1.2634 C.ar      1 <0>        -0.1296
     30 C25         2.8872    4.1839   -0.7105 C.ar      1 <0>         0.1044
     31 N2          3.1524    4.9184    0.4249 N.pl3     1 <0>        -0.5818
     32 H1          3.8500    4.7174    1.0682 H         1 <0>         0.4172
     33 C26         0.3599    6.9672   -0.7975 C.3       1 <0>        -0.0518
     34 C27         0.0645    7.7153    0.5086 C.3       1 <0>         0.1600
     35 H2         -0.5011    7.0687    1.1795 H         1 <0>         0.1152
     36 C28        -0.7369    8.9560    0.2092 C.2       1 <0>         0.4754
     37 O5         -0.4043    9.6868   -0.6937 O.2       1 <0>        -0.4824
     38 O6         -1.8202    9.2492    0.9455 O.3       1 <0>        -0.3595
     39 C29        -2.5438   10.4598    0.6006 C.3       1 <0>         0.0426
     40 H3          2.7660   14.1871    2.8979 H         1 <0>         0.0747
     41 H4          3.8357   14.9055    1.6699 H         1 <0>         0.0737
     42 H5          2.8123   13.5102    1.2523 H         1 <0>         0.0798
     43 H6          5.2004    9.7295    2.6648 H         1 <0>         0.1388
     44 H7          7.3252   10.5990    3.5017 H         1 <0>         0.1442
     45 H8          8.8354   11.8340    5.2120 H         1 <0>         0.0941
     46 H9          9.1393   11.4343    3.5074 H         1 <0>         0.0885
     47 H10        10.7646   13.2187    3.3046 H         1 <0>         0.0706
     48 H11        11.1660   12.2959    4.7757 H         1 <0>         0.0767
     49 H12        11.2419   14.6644    5.3484 H         1 <0>         0.0766
     50 H13         9.7752   13.9770    6.0929 H         1 <0>         0.0685
     51 H14         9.9671   15.5745    3.5065 H         1 <0>         0.0816
     52 H15         9.1462   16.0521    5.0088 H         1 <0>         0.0850
     53 H16         3.1653    9.3220    2.8259 H         1 <0>         0.1017
     54 H17         3.8058    9.3540    1.1655 H         1 <0>         0.1013
     55 H18         1.8396    6.5724    2.5191 H         1 <0>         0.1032
     56 H19         3.2303    7.4154    1.7838 H         1 <0>         0.1022
     57 H20         0.4909    4.7417   -3.0674 H         1 <0>         0.1233
     58 H21         1.5191    2.7379   -4.0135 H         1 <0>         0.1250
     59 H22         3.3998    1.6426   -2.8695 H         1 <0>         0.1277
     60 H23         4.2833    2.5546   -0.7699 H         1 <0>         0.1219
     61 H24         0.6871    7.6760   -1.5582 H         1 <0>         0.0948
     62 H25        -0.5405    6.4549   -1.1364 H         1 <0>         0.0957
     63 H26        -2.8986   10.3905   -0.4277 H         1 <0>         0.0612
     64 H27        -3.3948   10.5781    1.2713 H         1 <0>         0.0992
     65 H28        -1.8812   11.3197    0.6991 H         1 <0>         0.0670
@<TRIPOS>BOND
     1    1    2 1
     2    1   40 1
     3    1   41 1
     4    1   42 1
     5    2    7 ar
     6    2    3 ar
     7    3    4 ar
     8    3   17 1
     9    4    5 ar
    10    4   43 1
    11    5    6 ar
    12    5   44 1
    13    6   12 1
    14    6    7 ar
    15    7    8 1
    16    8    9 1
    17    9   10 2
    18    9   11 1
    19   11   16 1
    20   11   12 2
    21   12   13 1
    22   13   14 1
    23   13   45 1
    24   13   46 1
    25   14   15 1
    26   14   47 1
    27   14   48 1
    28   15   16 1
    29   15   49 1
    30   15   50 1
    31   16   51 1
    32   16   52 1
    33   17   18 1
    34   18   19 1
    35   18   53 1
    36   18   54 1
    37   19   20 2
    38   19   21 am
    39   21   34 1
    40   21   22 1
    41   22   23 1
    42   22   55 1
    43   22   56 1
    44   23   31 1
    45   23   24 2
    46   24   25 1
    47   24   33 1
    48   25   30 ar
    49   25   26 ar
    50   26   27 ar
    51   26   57 1
    52   27   28 ar
    53   27   58 1
    54   28   29 ar
    55   28   59 1
    56   29   30 ar
    57   29   60 1
    58   30   31 1
    59   31   32 1
    60   33   34 1
    61   33   61 1
    62   33   62 1
    63   34   35 1
    64   34   36 1
    65   36   37 2
    66   36   38 1
    67   38   39 1
    68   39   63 1
    69   39   64 1
    70   39   65 1
@<TRIPOS>MOLECULE
ZINC35911265
   64    68     0     0     0
SMALL
USER_CHARGES

@<TRIPOS>ATOM
      1 C1         -0.0184    1.5028    0.0103 C.3       1 <0>        -0.0973
      2 C2          0.0021   -0.0041    0.0020 C.2       1 <0>         0.0820
      3 C3          0.0083   -0.7930   -1.0941 C.2       1 <0>        -0.2313
      4 C4          0.0292   -2.1349   -0.6620 C.2       1 <0>         0.1643
      5 N1          0.0351   -2.1393    0.6554 N.2       1 <0>        -0.2847
      6 N2          0.0234   -0.8097    1.0960 N.pl3     1 <0>        -0.3312
      7 C5          0.0295   -0.3849    2.4309 C.ar      1 <0>         0.1754
      8 C6          0.7012    0.7771    2.7882 C.ar      1 <0>        -0.1321
      9 C7          0.7058    1.1938    4.1048 C.ar      1 <0>        -0.0829
     10 C8          0.0429    0.4553    5.0679 C.ar      1 <0>        -0.1159
     11 C9         -0.6274   -0.7029    4.7157 C.ar      1 <0>        -0.0155
     12 C10        -0.6405   -1.1216    3.3981 C.ar      1 <0>        -0.1077
     13 Cl1        -1.4582   -1.6271    5.9278 Cl        1 <0>        -0.0560
     14 C11         0.0414   -3.3307   -1.5364 C.2       1 <0>        -0.2312
     15 C12         0.0562   -4.6124   -0.9886 C.2       1 <0>         0.2432
     16 N3          0.0670   -5.6678   -1.7830 N.2       1 <0>        -0.5078
     17 C13         0.0642   -5.5427   -3.1091 C.2       1 <0>         0.3906
     18 C14         0.0760   -6.7023   -3.9142 C.2       1 <0>         0.1254
     19 C15         0.0731   -6.5741   -5.2752 C.2       1 <0>        -0.1531
     20 C16         0.0584   -5.2954   -5.8483 C.2       1 <0>        -0.1245
     21 C17         0.0472   -4.1972   -5.0603 C.2       1 <0>         0.0619
     22 N4          0.0495   -4.3111   -3.7019 N.am      1 <0>        -0.4098
     23 C18         0.0325   -3.1958   -2.9405 C.2       1 <0>         0.5280
     24 O1          0.0145   -2.0909   -3.4580 O.2       1 <0>        -0.5120
     25 O2          0.0906   -7.9347   -3.3415 O.3       1 <0>        -0.2508
     26 C19         0.1019   -9.0595   -4.2228 C.3       1 <0>         0.0340
     27 C20         0.1172  -10.3311   -3.4141 C.2       1 <0>         0.5157
     28 O3          0.1184  -10.2792   -2.2024 O.2       1 <0>        -0.5024
     29 N5          0.1297  -11.5260   -4.0375 N.am      1 <0>        -0.7245
     30 C21         0.1446  -12.7621   -3.2513 C.3       1 <0>         0.1470
     31 C22         1.5861  -13.1090   -2.8736 C.3       1 <0>        -0.1301
     32 C23         1.6017  -14.3999   -2.0526 C.3       1 <0>        -0.1184
     33 C24         1.0036  -15.5386   -2.8813 C.3       1 <0>        -0.1230
     34 C25        -0.4379  -15.1918   -3.2590 C.3       1 <0>        -0.1170
     35 C26        -0.4535  -13.9008   -4.0800 C.3       1 <0>        -0.1260
     36 C27         0.0604   -4.7938    0.5075 C.3       1 <0>        -0.1195
     37 H1          1.0042    1.8801    0.0026 H         1 <0>         0.0835
     38 H2         -0.5455    1.8639   -0.8728 H         1 <0>         0.0895
     39 H3         -0.5286    1.8543    0.9071 H         1 <0>         0.0753
     40 H4         -0.0013   -0.4557   -2.1201 H         1 <0>         0.1682
     41 H5          1.2198    1.3543    2.0370 H         1 <0>         0.1394
     42 H6          1.2281    2.0974    4.3827 H         1 <0>         0.1439
     43 H7          0.0487    0.7830    6.0970 H         1 <0>         0.1407
     44 H8         -1.1677   -2.0230    3.1225 H         1 <0>         0.1445
     45 H9          0.0824   -7.4519   -5.9042 H         1 <0>         0.1566
     46 H10         0.0565   -5.1870   -6.9228 H         1 <0>         0.1648
     47 H11         0.0360   -3.2166   -5.5129 H         1 <0>         0.1865
     48 H12        -0.7893   -9.0386   -4.8501 H         1 <0>         0.0996
     49 H13         0.9906   -9.0187   -4.8526 H         1 <0>         0.0996
     50 H14         0.1288  -11.5675   -5.0066 H         1 <0>         0.4010
     51 H15        -0.4451  -12.6236   -2.3452 H         1 <0>         0.0911
     52 H16         2.1759  -13.2475   -3.7798 H         1 <0>         0.0643
     53 H17         2.0122  -12.2978   -2.2833 H         1 <0>         0.0684
     54 H18         2.6287  -14.6470   -1.7835 H         1 <0>         0.0663
     55 H19         1.0120  -14.2614   -1.1465 H         1 <0>         0.0656
     56 H20         1.5933  -15.6771   -3.7874 H         1 <0>         0.0629
     57 H21         1.0147  -16.4583   -2.2964 H         1 <0>         0.0652
     58 H22        -0.8640  -16.0029   -3.8494 H         1 <0>         0.0687
     59 H23        -1.0277  -15.0532   -2.3529 H         1 <0>         0.0663
     60 H24        -1.4805  -13.6537   -4.3491 H         1 <0>         0.0697
     61 H25         0.1363  -14.0393   -4.9862 H         1 <0>         0.0690
     62 H26        -0.9662   -4.8487    0.8697 H         1 <0>         0.0910
     63 H27         0.5847   -5.7154    0.7603 H         1 <0>         0.0832
     64 H28         0.5657   -3.9485    0.9746 H         1 <0>         0.1123
@<TRIPOS>BOND
     1    1    2 1
     2    1   37 1
     3    1   38 1
     4    1   39 1
     5    2    6 1
     6    2    3 2
     7    3    4 1
     8    3   40 1
     9    4    5 2
    10    4   14 1
    11    5    6 1
    12    6    7 1
    13    7   12 ar
    14    7    8 ar
    15    8    9 ar
    16    8   41 1
    17    9   10 ar
    18    9   42 1
    19   10   11 ar
    20   10   43 1
    21   11   12 ar
    22   11   13 1
    23   12   44 1
    24   14   23 1
    25   14   15 2
    26   15   16 1
    27   15   36 1
    28   16   17 2
    29   17   22 1
    30   17   18 1
    31   18   19 2
    32   18   25 1
    33   19   20 1
    34   19   45 1
    35   20   21 2
    36   20   46 1
    37   21   22 1
    38   21   47 1
    39   22   23 am
    40   23   24 2
    41   25   26 1
    42   26   27 1
    43   26   48 1
    44   26   49 1
    45   27   28 2
    46   27   29 am
    47   29   30 1
    48   29   50 1
    49   30   35 1
    50   30   31 1
    51   30   51 1
    52   31   32 1
    53   31   52 1
    54   31   53 1
    55   32   33 1
    56   32   54 1
    57   32   55 1
    58   33   34 1
    59   33   56 1
    60   33   57 1
    61   34   35 1
    62   34   58 1
    63   34   59 1
    64   35   60 1
    65   35   61 1
    66   36   62 1
    67   36   63 1
    68   36   64 1
@<TRIPOS>MOLECULE
ZINC01309440
   55    60     0     0     0
SMALL
NO_CHARGES

@<TRIPOS>ATOM
      1 C1          4.1278    1.4453   -3.6833 C.ar      1 <0>        -0.1024
      2 C2          4.1809    2.1257   -2.4792 C.ar      1 <0>        -0.1203
      3 C3          4.0399    1.4422   -1.2900 C.ar      1 <0>        -0.0674
      4 C4          3.8423    0.0577   -1.3028 C.ar      1 <0>        -0.1566
      5 C5          3.7893   -0.6225   -2.5236 C.ar      1 <0>        -0.1042
      6 C6          3.9326    0.0753   -3.7042 C.ar      1 <0>        -0.1196
      7 C7          3.6913   -0.6795   -0.0381 C.2       1 <0>         0.3509
      8 O1          3.6384   -0.0766    1.0125 O.2       1 <0>        -0.4417
      9 C8          3.6025   -2.1839   -0.0489 C.3       1 <0>        -0.0449
     10 H1          2.8925   -2.5169   -0.8059 H         1 <0>         0.1329
     11 C9          3.1919   -2.7095    1.3434 C.3       1 <0>        -0.1137
     12 H2          3.3771   -1.9859    2.1372 H         1 <0>         0.1701
     13 C10         3.9991   -4.0251    1.5243 C.3       1 <0>        -0.1103
     14 H3          4.6180   -4.0233    2.4216 H         1 <0>         0.1593
     15 C11         4.8263   -4.1484    0.2331 C.3       1 <0>         0.0784
     16 H4          4.2842   -4.7550   -0.4923 H         1 <0>         0.1103
     17 N1          4.9457   -2.7829   -0.2955 N.4       1 <0>        -0.2782
     18 C12         5.8776   -2.0249    0.4016 C.2       1 <0>        -0.2213
     19 C13         6.9694   -2.5192    0.9592 C.2       1 <0>        -0.0984
     20 C14         7.2249   -3.9715    0.8460 C.ar      1 <0>        -0.0821
     21 C15         6.1616   -4.7672    0.5083 C.ar      1 <0>        -0.1600
     22 C16         6.3625   -6.1261    0.3979 C.ar      1 <0>        -0.0693
     23 C17         7.6126   -6.6631    0.6543 C.ar      1 <0>        -0.1607
     24 C18         8.6679   -5.8479    1.0218 C.ar      1 <0>        -0.1096
     25 C19         8.4758   -4.5221    1.0872 C.ar      1 <0>        -0.1020
     26 C20         2.9266   -5.0903    1.5568 C.2       1 <0>         0.5384
     27 O2          3.1240   -6.2794    1.6865 O.2       1 <0>        -0.4381
     28 N2          1.7257   -4.5164    1.4206 N.am      1 <0>        -0.5351
     29 C21         1.7523   -3.1690    1.2964 C.2       1 <0>         0.5364
     30 O3          0.7895   -2.4440    1.1662 O.2       1 <0>        -0.4323
     31 C22         0.5309   -5.2505    1.4128 C.ar      1 <0>         0.1181
     32 C23        -0.1442   -5.4930    2.6012 C.ar      1 <0>        -0.0229
     33 C24        -1.3211   -6.2159    2.5906 C.ar      1 <0>        -0.0357
     34 C25        -1.8273   -6.6988    1.3977 C.ar      1 <0>        -0.0246
     35 C26        -1.1580   -6.4595    0.2119 C.ar      1 <0>        -0.0971
     36 C27         0.0174   -5.7317    0.2152 C.ar      1 <0>         0.0246
     37 Cl1         0.8540   -5.4251   -1.2748 Cl        1 <0>        -0.0258
     38 N3         -2.0411   -6.4746    3.8577 N.pl3     1 <0>         0.0308
     39 O4         -1.5990   -6.0531    4.9011 O.2       1 <0>        -0.1450
     40 O5         -3.0713   -7.1073    3.8493 O.3       1 <0>        -0.1377
     41 H5          4.2347    1.9869   -4.6115 H         1 <0>         0.1268
     42 H6          4.3335    3.1949   -2.4710 H         1 <0>         0.1293
     43 H7          4.0822    1.9744   -0.3513 H         1 <0>         0.1335
     44 H8          3.6374   -1.6916   -2.5416 H         1 <0>         0.1147
     45 H9          3.8919   -0.4486   -4.6478 H         1 <0>         0.1276
     46 H10         5.6989   -0.9638    0.4937 H         1 <0>         0.1512
     47 H11         7.6598   -1.8766    1.4855 H         1 <0>         0.1364
     48 H12         5.5454   -6.7718    0.1118 H         1 <0>         0.1142
     49 H13         7.7651   -7.7287    0.5670 H         1 <0>         0.1144
     50 H14         9.6390   -6.2780    1.2182 H         1 <0>         0.1180
     51 H15         9.3058   -3.8887    1.3634 H         1 <0>         0.1140
     52 H16         0.2506   -5.1169    3.5335 H         1 <0>         0.1684
     53 H17        -2.7474   -7.2644    1.3924 H         1 <0>         0.1746
     54 H18        -1.5556   -6.8382   -0.7180 H         1 <0>         0.1716
     55 H19         5.1515   -2.7963   -1.2832 H         1 <0>         0.4124
@<TRIPOS>BOND
     1    1    6 ar
     2    1    2 ar
     3    1   41 1
     4    2    3 ar
     5    2   42 1
     6    3    4 ar
     7    3   43 1
     8    4    5 ar
     9    4    7 1
    10    5    6 ar
    11    5   44 1
    12    6   45 1
    13    7    8 2
    14    7    9 1
    15    9   10 1
    16    9   17 1
    17    9   11 1
    18   11   12 1
    19   11   29 1
    20   11   13 1
    21   13   14 1
    22   13   15 1
    23   13   26 1
    24   15   16 1
    25   15   21 1
    26   15   17 1
    27   17   18 1
    28   17   55 1
    29   18   19 2
    30   18   46 1
    31   19   20 1
    32   19   47 1
    33   20   25 ar
    34   20   21 ar
    35   21   22 ar
    36   22   23 ar
    37   22   48 1
    38   23   24 ar
    39   23   49 1
    40   24   25 ar
    41   24   50 1
    42   25   51 1
    43   26   27 2
    44   26   28 am
    45   28   29 am
    46   28   31 1
    47   29   30 2
    48   31   36 ar
    49   31   32 ar
    50   32   33 ar
    51   32   52 1
    52   33   34 ar
    53   33   38 1
    54   34   35 ar
    55   34   53 1
    56   35   36 ar
    57   35   54 1
    58   36   37 1
    59   38   39 2
    60   38   40 1
@<TRIPOS>MOLECULE
ZINC49421743
   61    65     0     0     0
SMALL
USER_CHARGES

@<TRIPOS>ATOM
      1 C1          5.1385   -4.8232   -7.9541 C.3       1 <0>        -0.1213
      2 C2          4.7953   -5.9508   -7.0150 C.ar      1 <0>        -0.0567
      3 C3          5.1137   -7.2529   -7.3563 C.ar      1 <0>        -0.1261
      4 C4          4.8017   -8.2894   -6.4999 C.ar      1 <0>        -0.0701
      5 C5          4.1648   -8.0222   -5.2900 C.ar      1 <0>        -0.0480
      6 C6          3.8464   -6.7089   -4.9513 C.ar      1 <0>        -0.0590
      7 C7          4.1681   -5.6794   -5.8125 C.ar      1 <0>        -0.1273
      8 C8          3.8263   -9.1330   -4.3652 C.2       1 <0>         0.3072
      9 N1          3.2115   -9.0013   -3.1807 N.2       1 <0>        -0.5312
     10 C9          3.0647  -10.1826   -2.6183 C.2       1 <0>         0.3943
     11 O1          3.5901  -11.1078   -3.4433 O.3       1 <0>        -0.0904
     12 N2          4.0749  -10.4032   -4.5762 N.2       1 <0>        -0.3349
     13 C10         2.4368  -10.4455   -1.3172 C.2       1 <0>        -0.1825
     14 C11         2.2614  -11.6391   -0.6832 C.2       1 <0>         0.0329
     15 C12         1.6326  -11.6778    0.5658 C.2       1 <0>        -0.2557
     16 C13         1.2171  -10.4312    1.0838 C.2       1 <0>         0.1163
     17 S1          1.7211   -9.2803   -0.1702 S.3       1 <0>         0.2763
     18 N3          0.6089  -10.3285    2.2587 N.2       1 <0>        -0.4906
     19 C14         0.3637  -11.3770    2.9962 C.2       1 <0>         0.4185
     20 N4          0.7161  -12.6267    2.6044 N.am      1 <0>        -0.5182
     21 C15         1.3380  -12.8434    1.4290 C.2       1 <0>         0.5687
     22 O2          1.6499  -13.9700    1.0855 O.2       1 <0>        -0.4985
     23 C16         0.4144  -13.7641    3.4770 C.3       1 <0>         0.0711
     24 C17        -0.9490  -14.3094    3.1382 C.2       1 <0>         0.4981
     25 O3         -1.6042  -13.7982    2.2548 O.2       1 <0>        -0.5004
     26 N5         -1.4403  -15.3651    3.8168 N.am      1 <0>        -0.6673
     27 C18        -2.7464  -15.8054    3.5759 C.ar      1 <0>         0.1245
     28 C19        -2.9830  -17.1326    3.2427 C.ar      1 <0>        -0.0833
     29 C20        -4.2734  -17.5640    3.0055 C.ar      1 <0>        -0.1160
     30 C21        -5.3292  -16.6760    3.0993 C.ar      1 <0>        -0.0771
     31 C22        -5.0969  -15.3536    3.4304 C.ar      1 <0>        -0.1159
     32 C23        -3.8095  -14.9173    3.6749 C.ar      1 <0>        -0.0652
     33 C24        -3.5579  -13.4777    4.0427 C.3       1 <0>        -0.1088
     34 C25        -6.7359  -17.1501    2.8397 C.3       1 <0>        -0.1165
     35 C26        -1.8329  -18.1010    3.1398 C.3       1 <0>        -0.1163
     36 C27         2.7433  -12.9140   -1.3263 C.3       1 <0>        -0.1245
     37 H1          6.1371   -4.4511   -7.7254 H         1 <0>         0.0766
     38 H2          5.1122   -5.1855   -8.9818 H         1 <0>         0.0707
     39 H3          4.4142   -4.0174   -7.8343 H         1 <0>         0.0712
     40 H4          5.6071   -7.4589   -8.2946 H         1 <0>         0.1325
     41 H5          5.0504   -9.3057   -6.7675 H         1 <0>         0.1327
     42 H6          3.3524   -6.4964   -4.0147 H         1 <0>         0.1394
     43 H7          3.9256   -4.6605   -5.5489 H         1 <0>         0.1331
     44 H8         -0.1337  -11.2457    3.9458 H         1 <0>         0.2188
     45 H9          1.1635  -14.5424    3.3314 H         1 <0>         0.1384
     46 H10         0.4270  -13.4377    4.5169 H         1 <0>         0.1368
     47 H11        -0.8884  -15.8197    4.4723 H         1 <0>         0.4111
     48 H12        -4.4580  -18.5960    2.7460 H         1 <0>         0.1266
     49 H13        -5.9235  -14.6624    3.5025 H         1 <0>         0.1260
     50 H14        -3.5112  -12.8740    3.1363 H         1 <0>         0.0814
     51 H15        -4.3678  -13.1180    4.6774 H         1 <0>         0.0664
     52 H16        -2.6129  -13.3998    4.5802 H         1 <0>         0.0544
     53 H17        -7.1809  -17.4955    3.7729 H         1 <0>         0.0726
     54 H18        -7.3279  -16.3282    2.4372 H         1 <0>         0.0677
     55 H19        -6.7163  -17.9697    2.1213 H         1 <0>         0.0677
     56 H20        -1.6802  -18.5875    4.1032 H         1 <0>         0.0733
     57 H21        -2.0583  -18.8538    2.3844 H         1 <0>         0.0715
     58 H22        -0.9285  -17.5623    2.8573 H         1 <0>         0.0651
     59 H23         3.7705  -13.1101   -1.0191 H         1 <0>         0.0871
     60 H24         2.1064  -13.7416   -1.0141 H         1 <0>         0.0942
     61 H25         2.7015  -12.8123   -2.4107 H         1 <0>         0.0788
@<TRIPOS>BOND
     1    1    2 1
     2    1   37 1
     3    1   38 1
     4    1   39 1
     5    2    7 ar
     6    2    3 ar
     7    3    4 ar
     8    3   40 1
     9    4    5 ar
    10    4   41 1
    11    5    6 ar
    12    5    8 1
    13    6    7 ar
    14    6   42 1
    15    7   43 1
    16    8   12 2
    17    8    9 1
    18    9   10 2
    19   10   11 1
    20   10   13 1
    21   11   12 1
    22   13   17 1
    23   13   14 2
    24   14   15 1
    25   14   36 1
    26   15   21 1
    27   15   16 2
    28   16   17 1
    29   16   18 1
    30   18   19 2
    31   19   20 1
    32   19   44 1
    33   20   21 am
    34   20   23 1
    35   21   22 2
    36   23   24 1
    37   23   45 1
    38   23   46 1
    39   24   25 2
    40   24   26 am
    41   26   27 1
    42   26   47 1
    43   27   32 ar
    44   27   28 ar
    45   28   29 ar
    46   28   35 1
    47   29   30 ar
    48   29   48 1
    49   30   31 ar
    50   30   34 1
    51   31   32 ar
    52   31   49 1
    53   32   33 1
    54   33   50 1
    55   33   51 1
    56   33   52 1
    57   34   53 1
    58   34   54 1
    59   34   55 1
    60   35   56 1
    61   35   57 1
    62   35   58 1
    63   36   59 1
    64   36   60 1
    65   36   61 1
@<TRIPOS>MOLECULE
ZINC20617432
   56    59     0     0     0
SMALL
USER_CHARGES
(2Z)-N-(2-chlorophenyl)-2-(2-ethoxyphenyl)imino-5-(hydroxymethyl)-8-methyl-pyrano[6,5-c]pyridine-3-carboxamide
@<TRIPOS>ATOM
      1 C1          2.5069    1.4571   -4.8378 C.3       1 <0>        -0.1574
      2 C2          1.7162    0.9750   -3.6199 C.3       1 <0>         0.0490
      3 O1          2.3896    1.3768   -2.4252 O.3       1 <0>        -0.3193
      4 C3          1.8146    1.0251   -1.2447 C.ar      1 <0>         0.1740
      5 C4          0.6300    0.3099   -1.2348 C.ar      1 <0>        -0.1974
      6 C5          0.0459   -0.0485   -0.0331 C.ar      1 <0>        -0.0258
      7 C6          0.6393    0.3051    1.1659 C.ar      1 <0>        -0.1387
      8 C7          1.8205    1.0186    1.1733 C.ar      1 <0>        -0.0455
      9 C8          2.4195    1.3850   -0.0331 C.ar      1 <0>        -0.0339
     10 N1          3.5910    2.0917   -0.0325 N.pl3     1 <0>        -0.4985
     11 C9          3.5679    3.4023   -0.1269 C.2       1 <0>         0.5281
     12 C10         4.8204    4.1771   -0.2388 C.2       1 <0>        -0.2507
     13 C11         4.7526    5.3975   -0.8739 C.2       1 <0>         0.1505
     14 C12         3.4446    5.8197   -1.3794 C.ar      1 <0>        -0.1208
     15 C13         3.3082    6.9009   -2.2583 C.ar      1 <0>        -0.0586
     16 C14         2.0437    7.2379   -2.6951 C.ar      1 <0>         0.1402
     17 N2          0.9805    6.5625   -2.2989 N.ar      1 <0>        -0.4161
     18 C15         1.0572    5.5392   -1.4722 C.ar      1 <0>         0.1663
     19 C16         2.2867    5.1268   -0.9786 C.ar      1 <0>         0.0616
     20 O2          2.3910    4.0810   -0.1299 O.3       1 <0>        -0.1868
     21 C17        -0.1973    4.8125   -1.0608 C.3       1 <0>        -0.1169
     22 C18         4.5148    7.6785   -2.7170 C.3       1 <0>         0.1173
     23 O3          4.1013    8.7213   -3.6021 O.3       1 <0>        -0.5963
     24 C19         6.0906    3.6657    0.3071 C.2       1 <0>         0.5780
     25 O4          7.1073    4.3246    0.2010 O.2       1 <0>        -0.4649
     26 N3          6.1252    2.4678    0.9239 N.am      1 <0>        -0.6793
     27 C20         7.3482    1.9294    1.3381 C.ar      1 <0>         0.1374
     28 C21         8.5254    2.3097    0.7071 C.ar      1 <0>        -0.1112
     29 C22         9.7312    1.7763    1.1183 C.ar      1 <0>        -0.0865
     30 C23         9.7678    0.8644    2.1573 C.ar      1 <0>        -0.1061
     31 C24         8.5981    0.4831    2.7883 C.ar      1 <0>        -0.0831
     32 C25         7.3884    1.0172    2.3858 C.ar      1 <0>        -0.0626
     33 Cl1         5.9208    0.5437    3.1829 Cl        1 <0>        -0.0648
     34 H1          1.9885    1.1478   -5.7574 H         1 <0>         0.0928
     35 H2          3.5145    1.0161   -4.8188 H         1 <0>         0.0708
     36 H3          2.5861    2.5540   -4.8128 H         1 <0>         0.0651
     37 H4          0.7086    1.4160   -3.6389 H         1 <0>         0.0748
     38 H5          1.6369   -0.1219   -3.6449 H         1 <0>         0.0777
     39 H6          0.1609    0.0308   -2.1667 H         1 <0>         0.1510
     40 H7         -0.8785   -0.6069   -0.0308 H         1 <0>         0.1485
     41 H8          0.1739    0.0254    2.0995 H         1 <0>         0.1499
     42 H9          2.2809    1.2928    2.1110 H         1 <0>         0.1452
     43 H10         5.6284    6.0180   -0.9939 H         1 <0>         0.2013
     44 H11         1.9212    8.0694   -3.3734 H         1 <0>         0.1971
     45 H12         0.0619    3.9941   -0.3731 H         1 <0>         0.0816
     46 H13        -0.6910    4.3994   -1.9528 H         1 <0>         0.0985
     47 H14        -0.8784    5.5136   -0.5563 H         1 <0>         0.1032
     48 H15         5.0215    8.1173   -1.8448 H         1 <0>         0.0802
     49 H16         5.2073    7.0046   -3.2426 H         1 <0>         0.0777
     50 H17         4.8487    9.3982   -4.0417 H         1 <0>         0.4390
     51 H18         5.1918    1.9135    1.1016 H         1 <0>         0.4043
     52 H19         8.4981    3.0220   -0.1042 H         1 <0>         0.1560
     53 H20        10.6469    2.0721    0.6279 H         1 <0>         0.1427
     54 H21        10.7123    0.4493    2.4769 H         1 <0>         0.1435
     55 H22         8.6302   -0.2290    3.5997 H         1 <0>         0.1464
     56 H23         4.5523    1.5629    0.0470 H         1 <0>         0.4715
@<TRIPOS>BOND
     1    1    2 1
     2    1   34 1
     3    1   35 1
     4    1   36 1
     5    2    3 1
     6    2   37 1
     7    2   38 1
     8    3    4 1
     9    4    9 ar
    10    4    5 ar
    11    5    6 ar
    12    5   39 1
    13    6    7 ar
    14    6   40 1
    15    7    8 ar
    16    7   41 1
    17    8    9 ar
    18    8   42 1
    19    9   10 1
    20   10   11 2
    21   10   56 1
    22   11   20 1
    23   11   12 1
    24   12   13 2
    25   12   24 1
    26   13   14 1
    27   13   43 1
    28   14   19 ar
    29   14   15 ar
    30   15   16 ar
    31   15   22 1
    32   16   17 ar
    33   16   44 1
    34   17   18 ar
    35   18   19 ar
    36   18   21 1
    37   19   20 1
    38   21   45 1
    39   21   46 1
    40   21   47 1
    41   22   23 1
    42   22   48 1
    43   22   49 1
    44   23   50 1
    45   24   25 2
    46   24   26 am
    47   26   27 1
    48   26   51 1
    49   27   32 ar
    50   27   28 ar
    51   28   29 ar
    52   28   52 1
    53   29   30 ar
    54   29   53 1
    55   30   31 ar
    56   30   54 1
    57   31   32 ar
    58   31   55 1
    59   32   33 1
@<TRIPOS>MOLECULE
ZINC38611561
   46    48     0     0     0
SMALL
USER_CHARGES

@<TRIPOS>ATOM
      1 C1          1.0670    1.2431   -0.0785 C.3       1 <0>        -0.1504
      2 C2          0.8300   -0.1139   -0.7443 C.3       1 <0>         0.0595
      3 O1         -0.4389   -0.6294   -0.3366 O.3       1 <0>        -0.2915
      4 C3         -0.8010   -1.8218   -0.8354 C.2       1 <0>         0.4739
      5 O2         -0.0651   -2.4084   -1.5932 O.2       1 <0>        -0.4691
      6 C4         -2.1255   -2.4288   -0.4504 C.3       1 <0>         0.1376
      7 H1         -2.5212   -1.9340    0.4366 H         1 <0>         0.2051
      8 C5         -3.1064   -2.3083   -1.5954 C.2       1 <0>         0.3348
      9 C6         -3.4503   -3.6054   -1.9340 C.ar      1 <0>        -0.1844
     10 C7         -4.3198   -4.1367   -2.9180 C.ar      1 <0>        -0.0703
     11 C8         -4.4693   -5.4833   -3.0274 C.ar      1 <0>         0.0993
     12 C9         -3.7807   -6.3675   -2.1861 C.ar      1 <0>        -0.0237
     13 C10        -2.9341   -5.9267   -1.2250 C.ar      1 <0>        -0.1553
     14 C11        -2.7264   -4.5338   -1.0495 C.ar      1 <0>         0.3218
     15 N1         -1.9691   -3.8651   -0.1999 N.pl3     1 <0>        -0.5976
     16 O3         -5.3069   -5.9840   -3.9751 O.3       1 <0>        -0.3036
     17 C12        -5.4279   -7.4060   -4.0479 C.3       1 <0>         0.0154
     18 N2         -3.5586   -1.1601   -2.1735 N.am      1 <0>        -0.6023
     19 C13        -3.2044    0.0360   -1.6632 C.2       1 <0>         0.6798
     20 O4         -2.4116    0.0938   -0.7437 O.2       1 <0>        -0.4919
     21 N3         -3.7294    1.1680   -2.1725 N.am      1 <0>        -0.6497
     22 C14        -3.4096    2.4059   -1.6028 C.ar      1 <0>         0.1528
     23 C15        -3.2833    3.5304   -2.4082 C.ar      1 <0>        -0.1132
     24 C16        -2.9682    4.7509   -1.8442 C.ar      1 <0>        -0.0750
     25 C17        -2.7782    4.8548   -0.4775 C.ar      1 <0>        -0.0344
     26 C18        -2.9029    3.7355    0.3282 C.ar      1 <0>        -0.0144
     27 C19        -3.2238    2.5127   -0.2312 C.ar      1 <0>        -0.0936
     28 Cl1        -2.6633    3.8693    2.0423 Cl        1 <0>        -0.0285
     29 Cl2        -2.3821    6.3907    0.2282 Cl        1 <0>        -0.0297
     30 H2          2.0348    1.6363   -0.3895 H         1 <0>         0.0869
     31 H3          0.2804    1.9363   -0.3764 H         1 <0>         0.0695
     32 H4          1.0546    1.1233    1.0049 H         1 <0>         0.0715
     33 H5          0.8424    0.0059   -1.8277 H         1 <0>         0.0708
     34 H6          1.6166   -0.8072   -0.4464 H         1 <0>         0.0751
     35 H7         -4.8615   -3.4751   -3.5778 H         1 <0>         0.1584
     36 H8         -3.9290   -7.4304   -2.3076 H         1 <0>         0.1673
     37 H9         -2.4178   -6.6342   -0.5931 H         1 <0>         0.1695
     38 H10        -6.1245   -7.6711   -4.8433 H         1 <0>         0.1161
     39 H11        -4.4521   -7.8434   -4.2589 H         1 <0>         0.0650
     40 H12        -5.7995   -7.7882   -3.0972 H         1 <0>         0.0651
     41 H13        -4.1353   -1.2037   -2.9522 H         1 <0>         0.4432
     42 H14        -4.3289    1.1249   -2.9339 H         1 <0>         0.4233
     43 H15        -3.4311    3.4502   -3.4750 H         1 <0>         0.1474
     44 H16        -2.8696    5.6252   -2.4705 H         1 <0>         0.1555
     45 H17        -3.3256    1.6406    0.3976 H         1 <0>         0.1548
     46 H18        -1.4004   -4.2594    0.4798 H         1 <0>         0.4592
@<TRIPOS>BOND
     1    1    2 1
     2    1   30 1
     3    1   31 1
     4    1   32 1
     5    2    3 1
     6    2   33 1
     7    2   34 1
     8    3    4 1
     9    4    5 2
    10    4    6 1
    11    6    7 1
    12    6   15 1
    13    6    8 1
    14    8    9 2
    15    8   18 1
    16    9   14 ar
    17    9   10 ar
    18   10   11 ar
    19   10   35 1
    20   11   12 ar
    21   11   16 1
    22   12   13 ar
    23   12   36 1
    24   13   14 ar
    25   13   37 1
    26   14   15 2
    27   15   46 1
    28   16   17 1
    29   17   38 1
    30   17   39 1
    31   17   40 1
    32   18   19 am
    33   18   41 1
    34   19   20 2
    35   19   21 am
    36   21   22 1
    37   21   42 1
    38   22   27 ar
    39   22   23 ar
    40   23   24 ar
    41   23   43 1
    42   24   25 ar
    43   24   44 1
    44   25   26 ar
    45   25   29 1
    46   26   27 ar
    47   26   28 1
    48   27   45 1
@<TRIPOS>MOLECULE
ZINC16474913
   62    64     0     0     0
SMALL
USER_CHARGES

@<TRIPOS>ATOM
      1 C1          8.3201   -0.1724    5.6239 C.3       1 <0>        -0.1688
      2 C2          8.0889    0.5038    4.2710 C.3       1 <0>        -0.1085
      3 H1          8.4693    1.5247    4.3047 H         1 <0>         0.1192
      4 C3          8.8203   -0.2786    3.1765 C.3       1 <0>        -0.1296
      5 C4          8.2257   -1.6870    3.0855 C.3       1 <0>        -0.1125
      6 H2          8.3933   -2.2142    4.0247 H         1 <0>         0.0969
      7 C5          6.7225   -1.5839    2.8186 C.3       1 <0>        -0.0055
      8 N1          6.0770   -0.8484    3.9126 N.4       1 <0>        -0.3720
      9 C6          6.5906    0.5268    3.9607 C.3       1 <0>        -0.0175
     10 C7          4.6251   -0.8194    3.6914 C.3       1 <0>        -0.0292
     11 C8          3.9497   -0.1728    4.8733 C.2       1 <0>         0.4960
     12 O1          4.6126    0.2247    5.8079 O.2       1 <0>        -0.5002
     13 N2          2.6090   -0.0363    4.8917 N.am      1 <0>        -0.6448
     14 C9          1.9721    0.4622    6.0336 C.ar      1 <0>         0.1011
     15 C10         0.8213    1.2299    5.9093 C.ar      1 <0>        -0.0765
     16 C11         0.1952    1.7205    7.0381 C.ar      1 <0>        -0.1145
     17 C12         0.7131    1.4486    8.2914 C.ar      1 <0>        -0.0163
     18 C13         1.8588    0.6851    8.4184 C.ar      1 <0>        -0.6229
     19 C14         2.4861    0.1859    7.2935 C.ar      1 <0>        -0.0156
     20 S1          2.5149    0.3420   10.0173 S.o2      1 <0>         2.6412
     21 O2          3.8972    0.0653    9.8382 O.2       1 <0>        -0.9784
     22 O3          2.0496    1.3733   10.8771 O.2       1 <0>        -0.9651
     23 N3          1.8150   -1.0639   10.5424 N.2       1 <0>        -1.0008
     24 C15         2.1248   -1.5468   11.7014 C.2       1 <0>         0.5736
     25 C16         3.1309   -0.8191   12.5898 C.3       1 <0>        -0.1682
     26 C17         2.3657   -0.2577   13.7690 C.3       1 <0>        -0.1208
     27 C18         2.2504   -1.2341   14.9411 C.3       1 <0>        -0.1218
     28 C19         1.9253   -2.6622   14.5019 C.3       1 <0>        -0.1516
     29 C20         0.8680   -2.7282   13.4212 C.3       1 <0>         0.1267
     30 N4          1.5686   -2.6660   12.1212 N.pl3     1 <0>        -0.7252
     31 C21         8.8971   -2.4521    1.9432 C.3       1 <0>        -0.1503
     32 H3          7.9395   -1.1932    5.5896 H         1 <0>         0.0486
     33 H4          9.3876   -0.1898    5.8436 H         1 <0>         0.0829
     34 H5          7.7980    0.3841    6.4022 H         1 <0>         0.0786
     35 H6          8.6983    0.2309    2.2207 H         1 <0>         0.0828
     36 H7          9.8800   -0.3456    3.4226 H         1 <0>         0.0957
     37 H8          6.5561   -1.0568    1.8792 H         1 <0>         0.1323
     38 H9          6.2961   -2.5848    2.7531 H         1 <0>         0.1321
     39 H10         6.0675    1.0837    4.7381 H         1 <0>         0.1476
     40 H11         6.4270    1.0089    2.9969 H         1 <0>         0.1267
     41 H12         4.4062   -0.2471    2.7900 H         1 <0>         0.1635
     42 H13         4.2550   -1.8379    3.5739 H         1 <0>         0.1650
     43 H14         2.0855   -0.2837    4.1135 H         1 <0>         0.4223
     44 H15         0.4167    1.4431    4.9309 H         1 <0>         0.1410
     45 H16        -0.6997    2.3174    6.9422 H         1 <0>         0.1477
     46 H17         0.2218    1.8337    9.1726 H         1 <0>         0.1493
     47 H18         3.3781   -0.4148    7.3936 H         1 <0>         0.1492
     48 H19         3.8907   -1.5181   12.9395 H         1 <0>         0.1204
     49 H20         3.5999   -0.0084   12.0322 H         1 <0>         0.0817
     50 H21         2.8697    0.6449   14.1146 H         1 <0>         0.0846
     51 H22         1.3624    0.0108   13.4383 H         1 <0>         0.0711
     52 H23         3.1947   -1.2412   15.4856 H         1 <0>         0.0713
     53 H24         1.4646   -0.8860   15.6114 H         1 <0>         0.0733
     54 H25         2.8365   -3.1298   14.1290 H         1 <0>         0.0733
     55 H26         1.5758   -3.2239   15.3682 H         1 <0>         0.0811
     56 H27         0.3129   -3.6629   13.5010 H         1 <0>         0.1015
     57 H28         0.1877   -1.8818   13.5147 H         1 <0>         0.0805
     58 H29         1.6198   -3.4627   11.5702 H         1 <0>         0.4143
     59 H30         9.9682   -2.5218    2.1328 H         1 <0>         0.0785
     60 H31         8.4735   -3.4544    1.8790 H         1 <0>         0.0683
     61 H32         8.7278   -1.9253    1.0042 H         1 <0>         0.0675
     62 H33         6.2726   -1.3100    4.7883 H         1 <0>         0.4290
@<TRIPOS>BOND
     1    1    2 1
     2    1   32 1
     3    1   33 1
     4    1   34 1
     5    2    3 1
     6    2    9 1
     7    2    4 1
     8    4    5 1
     9    4   35 1
    10    4   36 1
    11    5    6 1
    12    5    7 1
    13    5   31 1
    14    7    8 1
    15    7   37 1
    16    7   38 1
    17    8    9 1
    18    8   10 1
    19    8   62 1
    20    9   39 1
    21    9   40 1
    22   10   11 1
    23   10   41 1
    24   10   42 1
    25   11   12 2
    26   11   13 am
    27   13   14 1
    28   13   43 1
    29   14   19 ar
    30   14   15 ar
    31   15   16 ar
    32   15   44 1
    33   16   17 ar
    34   16   45 1
    35   17   18 ar
    36   17   46 1
    37   18   19 ar
    38   18   20 1
    39   19   47 1
    40   20   21 2
    41   20   22 2
    42   20   23 1
    43   23   24 2
    44   24   30 1
    45   24   25 1
    46   25   26 1
    47   25   48 1
    48   25   49 1
    49   26   27 1
    50   26   50 1
    51   26   51 1
    52   27   28 1
    53   27   52 1
    54   27   53 1
    55   28   29 1
    56   28   54 1
    57   28   55 1
    58   29   30 1
    59   29   56 1
    60   29   57 1
    61   30   58 1
    62   31   59 1
    63   31   60 1
    64   31   61 1
@<TRIPOS>MOLECULE
ZINC63376182
   66    71     0     0     0
SMALL
USER_CHARGES

@<TRIPOS>ATOM
      1 C1         -0.0187    1.5258    0.0104 C.3       1 <0>        -0.1650
      2 C2          0.0021   -0.0041    0.0020 C.3       1 <0>         0.1260
      3 H1          0.5123   -0.3556   -0.8948 H         1 <0>         0.1169
      4 C3          0.7309   -0.5033    1.2229 C.2       1 <0>         0.5128
      5 O1          0.1587   -1.2128    2.0229 O.2       1 <0>        -0.5357
      6 N1          2.0187   -0.1613    1.4257 N.am      1 <0>        -0.7210
      7 C4          2.7273   -0.6466    2.6126 C.3       1 <0>         0.1244
      8 C5          4.1627   -0.1170    2.6018 C.3       1 <0>        -0.0915
      9 C6          4.8915   -0.6162    3.8226 C.ar      1 <0>        -0.0897
     10 C7          4.8680    0.1215    4.9915 C.ar      1 <0>        -0.1130
     11 C8          5.5366   -0.3364    6.1114 C.ar      1 <0>        -0.1161
     12 C9          6.2283   -1.5323    6.0626 C.ar      1 <0>        -0.1169
     13 C10         6.2510   -2.2705    4.8941 C.ar      1 <0>        -0.1176
     14 C11         5.5789   -1.8147    3.7754 C.ar      1 <0>        -0.1145
     15 N2         -1.3723   -0.5112    0.0124 N.am      1 <0>        -0.7043
     16 C12        -2.0508   -0.6427   -1.1446 C.2       1 <0>         0.5021
     17 O2         -1.5236   -0.3413   -2.1944 O.2       1 <0>        -0.5161
     18 C13        -3.4646   -1.1643   -1.1339 C.3       1 <0>         0.1479
     19 H2         -4.0937   -0.5053   -0.5355 H         1 <0>         0.1585
     20 C14        -3.4880   -2.5850   -0.5371 C.3       1 <0>        -0.0948
     21 C15        -2.9841   -3.5247   -1.6046 C.2       1 <0>         0.0527
     22 C16        -2.0173   -4.4361   -1.5736 C.ar      1 <0>        -0.1530
     23 C17        -1.1639   -4.9203   -0.4765 C.ar      1 <0>         0.0023
     24 C18        -0.2449   -5.8665   -0.8049 C.ar      1 <0>        -0.1580
     25 C19        -0.0918   -6.3743   -2.0986 C.ar      1 <0>         0.0591
     26 C20        -0.8385   -5.9931   -3.1653 C.ar      1 <0>        -0.2088
     27 C21        -1.8438   -5.0073   -2.9435 C.ar      1 <0>         0.3380
     28 N3         -2.7014   -4.4817   -3.7666 N.pl3     1 <0>        -0.5729
     29 C22        -3.5556   -3.5580   -3.0176 C.3       1 <0>         0.0856
     30 H3         -4.5888   -3.9052   -3.0108 H         1 <0>         0.1828
     31 C23        -3.4537   -2.1281   -3.5603 C.3       1 <0>         0.1912
     32 H4         -2.4207   -1.8798   -3.8037 H         1 <0>         0.1346
     33 N4         -3.9792   -1.2238   -2.5084 N.am      1 <0>        -0.6028
     34 C24        -4.9918   -0.5006   -3.0196 C.2       1 <0>         0.5742
     35 O3         -5.5822    0.3835   -2.4304 O.2       1 <0>        -0.4860
     36 C25        -5.2794   -0.9324   -4.3888 C.ar      1 <0>        -0.1540
     37 C26        -4.3374   -1.9461   -4.7514 C.ar      1 <0>        -0.1101
     38 C27        -4.3493   -2.5558   -5.9862 C.ar      1 <0>        -0.0904
     39 C28        -5.3253   -2.1393   -6.8869 C.ar      1 <0>        -0.0819
     40 C29        -6.2421   -1.1589   -6.5640 C.ar      1 <0>        -0.1103
     41 C30        -6.2598   -0.5123   -5.2916 C.ar      1 <0>        -0.0174
     42 H5          1.0039    1.9031    0.0027 H         1 <0>         0.0777
     43 H6         -0.5459    1.8868   -0.8726 H         1 <0>         0.0774
     44 H7         -0.5289    1.8773    0.9072 H         1 <0>         0.0704
     45 H8          2.4764    0.4061    0.7859 H         1 <0>         0.4055
     46 H9          2.2171   -0.2951    3.5094 H         1 <0>         0.0753
     47 H10         2.7421   -1.7365    2.6066 H         1 <0>         0.0731
     48 H11         4.6729   -0.4685    1.7050 H         1 <0>         0.0805
     49 H12         4.1479    0.9729    2.6077 H         1 <0>         0.0821
     50 H13         4.3276    1.0558    5.0296 H         1 <0>         0.1224
     51 H14         5.5189    0.2403    7.0243 H         1 <0>         0.1250
     52 H15         6.7512   -1.8897    6.9374 H         1 <0>         0.1244
     53 H16         6.7917   -3.2046    4.8559 H         1 <0>         0.1240
     54 H17         5.5936   -2.3932    2.8636 H         1 <0>         0.1206
     55 H18        -1.7940   -0.7522    0.8520 H         1 <0>         0.4141
     56 H19        -2.8371   -2.6317    0.3360 H         1 <0>         0.1308
     57 H20        -4.5066   -2.8534   -0.2569 H         1 <0>         0.1447
     58 H21        -1.2620   -4.5451    0.5314 H         1 <0>         0.1713
     59 H22         0.4006   -6.2454   -0.0263 H         1 <0>         0.1562
     60 H23         0.6727   -7.1200   -2.2598 H         1 <0>         0.1595
     61 H24        -0.6775   -6.4199   -4.1443 H         1 <0>         0.1709
     62 H25        -3.6334   -3.3222   -6.2441 H         1 <0>         0.1334
     63 H26        -5.3664   -2.5952   -7.8651 H         1 <0>         0.1410
     64 H27        -6.9788   -0.8676   -7.2980 H         1 <0>         0.1413
     65 H28        -6.9734    0.2563   -5.0342 H         1 <0>         0.1565
     66 H29        -2.7646   -4.6691   -4.7162 H         1 <0>         0.4545
@<TRIPOS>BOND
     1    1    2 1
     2    1   42 1
     3    1   43 1
     4    1   44 1
     5    2    3 1
     6    2    4 1
     7    2   15 1
     8    4    5 2
     9    4    6 am
    10    6    7 1
    11    6   45 1
    12    7    8 1
    13    7   46 1
    14    7   47 1
    15    8    9 1
    16    8   48 1
    17    8   49 1
    18    9   14 ar
    19    9   10 ar
    20   10   11 ar
    21   10   50 1
    22   11   12 ar
    23   11   51 1
    24   12   13 ar
    25   12   52 1
    26   13   14 ar
    27   13   53 1
    28   14   54 1
    29   15   16 am
    30   15   55 1
    31   16   17 2
    32   16   18 1
    33   18   19 1
    34   18   33 1
    35   18   20 1
    36   20   21 1
    37   20   56 1
    38   20   57 1
    39   21   29 1
    40   21   22 2
    41   22   27 ar
    42   22   23 ar
    43   23   24 ar
    44   23   58 1
    45   24   25 ar
    46   24   59 1
    47   25   26 ar
    48   25   60 1
    49   26   27 ar
    50   26   61 1
    51   27   28 2
    52   28   29 1
    53   28   66 1
    54   29   30 1
    55   29   31 1
    56   31   32 1
    57   31   37 1
    58   31   33 1
    59   33   34 am
    60   34   35 2
    61   34   36 1
    62   36   41 ar
    63   36   37 ar
    64   37   38 ar
    65   38   39 ar
    66   38   62 1
    67   39   40 ar
    68   39   63 1
    69   40   41 ar
    70   40   64 1
    71   41   65 1
@<TRIPOS>MOLECULE
ZINC64600266
   55    58     0     0     0
SMALL
USER_CHARGES

@<TRIPOS>ATOM
      1 C1         -0.0187    1.5258    0.0104 C.3       1 <0>        -0.1707
      2 C2          0.0021   -0.0041    0.0020 C.3       1 <0>         0.1015
      3 N1         -1.3723   -0.5112    0.0124 N.am      1 <0>        -0.5471
      4 C3         -2.0931   -0.7815    1.1766 C.ar      1 <0>         0.1778
      5 C4         -1.7369   -0.6564    2.5181 C.ar      1 <0>        -0.1314
      6 C5         -2.6367   -0.9928    3.5080 C.ar      1 <0>        -0.0357
      7 C6         -3.8981   -1.4565    3.1785 C.ar      1 <0>        -0.1178
      8 C7         -4.2591   -1.5830    1.8476 C.ar      1 <0>        -0.0152
      9 C8         -3.3622   -1.2476    0.8583 C.ar      1 <0>        -0.1691
     10 C9         -3.4408   -1.2702   -0.6509 C.3       1 <0>         0.1647
     11 H1         -3.6097   -2.2857   -1.0093 H         1 <0>         0.1472
     12 C10        -2.0859   -0.7640   -1.0977 C.2       1 <0>         0.5218
     13 O1         -1.7137   -0.6161   -2.2426 O.2       1 <0>        -0.4758
     14 N2         -4.5022   -0.3776   -1.1230 N.am      1 <0>        -0.6791
     15 C11        -5.0855   -0.5972   -2.3180 C.2       1 <0>         0.5106
     16 O2         -4.7315   -1.5343   -3.0029 O.2       1 <0>        -0.4992
     17 C12        -6.1682    0.3135   -2.7996 C.2       1 <0>         0.5159
     18 O3         -6.5222    1.2506   -2.1148 O.2       1 <0>        -0.5006
     19 N3         -6.7515    0.0939   -3.9947 N.am      1 <0>        -0.7090
     20 C13        -7.8129    0.9865   -4.4668 C.3       1 <0>         0.1474
     21 H2         -7.6041    2.0047   -4.1384 H         1 <0>         0.1044
     22 C14        -9.1557    0.5307   -3.8924 C.3       1 <0>        -0.1701
     23 C15        -7.8715    0.9454   -5.9951 C.3       1 <0>        -0.1018
     24 C16        -6.5944    1.5097   -6.5622 C.2       1 <0>         0.0616
     25 C17        -5.5007    0.8154   -6.9509 C.ar      1 <0>        -0.1673
     26 C18        -5.1844   -0.6179   -6.9607 C.ar      1 <0>        -0.0168
     27 C19        -3.9773   -1.0202   -7.4191 C.ar      1 <0>        -0.1425
     28 C20        -3.0229   -0.1048   -7.8836 C.ar      1 <0>         0.0572
     29 C21        -3.2403    1.2272   -7.9057 C.ar      1 <0>        -0.2105
     30 C22        -4.4760    1.7615   -7.4471 C.ar      1 <0>         0.3284
     31 N4         -4.9189    2.9928   -7.3682 N.pl3     1 <0>        -0.5869
     32 C23        -6.2787    2.9665   -6.8180 C.3       1 <0>         0.0617
     33 Br1        -5.1253   -1.9168    4.5416 Br        1 <0>        -0.0284
     34 H3          1.0039    1.9031    0.0027 H         1 <0>         0.0794
     35 H4         -0.5459    1.8868   -0.8726 H         1 <0>         0.0581
     36 H5         -0.5289    1.8773    0.9072 H         1 <0>         0.0633
     37 H6          0.5123   -0.3556   -0.8948 H         1 <0>         0.0949
     38 H7          0.5293   -0.3651    0.8851 H         1 <0>         0.0936
     39 H8         -0.7541   -0.2955    2.7833 H         1 <0>         0.1418
     40 H9         -2.3550   -0.8941    4.5459 H         1 <0>         0.1482
     41 H10        -5.2427   -1.9442    1.5860 H         1 <0>         0.1424
     42 H11        -4.7852    0.3715   -0.5755 H         1 <0>         0.4217
     43 H12        -6.4685   -0.6552   -4.5421 H         1 <0>         0.4111
     44 H13        -9.1139    0.5599   -2.8036 H         1 <0>         0.0765
     45 H14        -9.9454    1.1948   -4.2437 H         1 <0>         0.0810
     46 H15        -9.3645   -0.4875   -4.2207 H         1 <0>         0.0702
     47 H16        -7.9917   -0.0860   -6.3265 H         1 <0>         0.1181
     48 H17        -8.7169    1.5394   -6.3424 H         1 <0>         0.1338
     49 H18        -5.9048   -1.3405   -6.6067 H         1 <0>         0.1581
     50 H19        -3.7425   -2.0743   -7.4272 H         1 <0>         0.1590
     51 H20        -2.0744   -0.4807   -8.2380 H         1 <0>         0.1611
     52 H21        -2.4716    1.8909   -8.2733 H         1 <0>         0.1601
     53 H22        -6.9849    3.3835   -7.5359 H         1 <0>         0.1753
     54 H23        -6.3150    3.5283   -5.8846 H         1 <0>         0.1714
     55 H24        -4.4307    3.7881   -7.6331 H         1 <0>         0.4554
@<TRIPOS>BOND
     1    1    2 1
     2    1   34 1
     3    1   35 1
     4    1   36 1
     5    2    3 1
     6    2   37 1
     7    2   38 1
     8    3   12 am
     9    3    4 1
    10    4    9 ar
    11    4    5 ar
    12    5    6 ar
    13    5   39 1
    14    6    7 ar
    15    6   40 1
    16    7    8 ar
    17    7   33 1
    18    8    9 ar
    19    8   41 1
    20    9   10 1
    21   10   11 1
    22   10   12 1
    23   10   14 1
    24   12   13 2
    25   14   15 am
    26   14   42 1
    27   15   16 2
    28   15   17 1
    29   17   18 2
    30   17   19 am
    31   19   20 1
    32   19   43 1
    33   20   21 1
    34   20   22 1
    35   20   23 1
    36   22   44 1
    37   22   45 1
    38   22   46 1
    39   23   24 1
    40   23   47 1
    41   23   48 1
    42   24   32 1
    43   24   25 2
    44   25   30 ar
    45   25   26 ar
    46   26   27 ar
    47   26   49 1
    48   27   28 ar
    49   27   50 1
    50   28   29 ar
    51   28   51 1
    52   29   30 ar
    53   29   52 1
    54   30   31 2
    55   31   32 1
    56   31   55 1
    57   32   53 1
    58   32   54 1
@<TRIPOS>MOLECULE
ZINC07177520
   47    49     0     0     0
SMALL
USER_CHARGES
4-[2-(4-amino-6-methyl-pyrimidin-2-yl)sulfanylpropanoyl]-3,3-dimethyl-1H-quinoxalin-2-one
@<TRIPOS>ATOM
      1 C1         -8.7746   10.3508   -2.4899 C.3       1 <0>        -0.1075
      2 C2         -7.7758    9.6110   -1.6378 C.ar      1 <0>         0.2189
      3 C3         -7.2745   10.1900   -0.4881 C.ar      1 <0>        -0.3016
      4 C4         -6.3512    9.4697    0.2728 C.ar      1 <0>         0.4544
      5 N1         -5.9914    8.2551   -0.1296 N.ar      1 <0>        -0.5923
      6 C5         -6.4917    7.7372   -1.2419 C.ar      1 <0>         0.3330
      7 N2         -7.3695    8.3984   -1.9832 N.ar      1 <0>        -0.5393
      8 S1         -5.9830    6.1267   -1.7443 S.3       1 <0>         0.0796
      9 C6         -4.8277    5.7310   -0.4083 C.3       1 <0>        -0.1757
     10 H1         -4.0724    6.5136   -0.3375 H         1 <0>         0.1849
     11 C7         -5.5907    5.6372    0.9146 C.3       1 <0>        -0.1674
     12 C8         -4.1588    4.4118   -0.6970 C.2       1 <0>         0.5459
     13 O1         -4.5143    3.7466   -1.6470 O.2       1 <0>        -0.4901
     14 N3         -3.1656    3.9711    0.1004 N.am      1 <0>        -0.5504
     15 C9         -2.6867    2.6553    0.0010 C.ar      1 <0>         0.1165
     16 C10        -3.5096    1.6254   -0.4183 C.ar      1 <0>        -0.0899
     17 C11        -3.0117    0.3369   -0.4946 C.ar      1 <0>        -0.1151
     18 C12        -1.6935    0.0802   -0.1639 C.ar      1 <0>        -0.0991
     19 C13        -0.8637    1.1065    0.2484 C.ar      1 <0>        -0.1310
     20 C14        -1.3551    2.3995    0.3325 C.ar      1 <0>         0.1272
     21 N4         -0.5309    3.4533    0.7419 N.am      1 <0>        -0.6547
     22 C15        -1.0568    4.6426    1.0911 C.2       1 <0>         0.5207
     23 O2         -0.3205    5.5555    1.4005 O.2       1 <0>        -0.5047
     24 C16        -2.5492    4.8532    1.1026 C.3       1 <0>         0.1571
     25 C17        -3.1027    4.5180    2.4890 C.3       1 <0>        -0.1666
     26 C18        -2.8630    6.3116    0.7630 C.3       1 <0>        -0.2077
     27 N5         -5.8223   10.0109    1.4332 N.pl3     1 <0>        -0.8343
     28 H2         -9.7842   10.1169   -2.1522 H         1 <0>         0.0870
     29 H3         -8.6019   11.4236   -2.4034 H         1 <0>         0.0810
     30 H4         -8.6600   10.0471   -3.5305 H         1 <0>         0.0845
     31 H5         -7.5893   11.1775   -0.1847 H         1 <0>         0.1424
     32 H6         -6.2759    4.7903    0.8796 H         1 <0>         0.0714
     33 H7         -4.8838    5.4991    1.7327 H         1 <0>         0.0862
     34 H8         -6.1559    6.5555    1.0739 H         1 <0>         0.0973
     35 H9         -4.5377    1.8258   -0.6815 H         1 <0>         0.1420
     36 H10        -3.6528   -0.4699   -0.8175 H         1 <0>         0.1337
     37 H11        -1.3101   -0.9274   -0.2283 H         1 <0>         0.1334
     38 H12         0.1653    0.9009    0.5039 H         1 <0>         0.1350
     39 H13         0.4300    3.3256    0.7749 H         1 <0>         0.4167
     40 H14        -2.9888    5.3816    3.1442 H         1 <0>         0.0891
     41 H15        -4.1589    4.2615    2.4063 H         1 <0>         0.0904
     42 H16        -2.5548    3.6722    2.9043 H         1 <0>         0.0701
     43 H17        -2.6270    6.4997   -0.2844 H         1 <0>         0.0761
     44 H18        -3.9213    6.5057    0.9374 H         1 <0>         0.1335
     45 H19        -2.2643    6.9685    1.3940 H         1 <0>         0.0982
     46 H20        -6.0928   10.8963    1.7226 H         1 <0>         0.4139
     47 H21        -5.1815    9.5044    1.9564 H         1 <0>         0.4072
@<TRIPOS>BOND
     1    1    2 1
     2    1   28 1
     3    1   29 1
     4    1   30 1
     5    2    7 ar
     6    2    3 ar
     7    3    4 ar
     8    3   31 1
     9    4    5 ar
    10    4   27 1
    11    5    6 ar
    12    6    7 ar
    13    6    8 1
    14    8    9 1
    15    9   10 1
    16    9   11 1
    17    9   12 1
    18   11   32 1
    19   11   33 1
    20   11   34 1
    21   12   13 2
    22   12   14 am
    23   14   24 1
    24   14   15 1
    25   15   20 ar
    26   15   16 ar
    27   16   17 ar
    28   16   35 1
    29   17   18 ar
    30   17   36 1
    31   18   19 ar
    32   18   37 1
    33   19   20 ar
    34   19   38 1
    35   20   21 1
    36   21   22 am
    37   21   39 1
    38   22   23 2
    39   22   24 1
    40   24   25 1
    41   24   26 1
    42   25   40 1
    43   25   41 1
    44   25   42 1
    45   26   43 1
    46   26   44 1
    47   26   45 1
    48   27   46 1
    49   27   47 1
@<TRIPOS>MOLECULE
ZINC28190469
   39    41     0     0     0
SMALL
USER_CHARGES
6-[(1R)-1-[(5,6-difluoro-1H-benzimidazol-2-yl)sulfanyl]ethyl]-N',N'-dimethyl-1,3,5-triazine-2,4-diamine
@<TRIPOS>ATOM
      1 C1         -3.3840    3.4926    1.3424 C.3       1 <0>        -0.1471
      2 C2         -3.6710    2.7569    0.0319 C.3       1 <0>        -0.0151
      3 H1         -3.4646    3.4929   -0.7591 H         1 <0>         0.1394
      4 C3         -5.1516    2.5027   -0.0875 C.ar      1 <0>         0.4391
      5 N1         -5.7183    1.5549    0.6386 N.ar      1 <0>        -0.6326
      6 C4         -7.0257    1.3276    0.5361 C.ar      1 <0>         0.6356
      7 N2         -7.7613    2.0552   -0.2975 N.ar      1 <0>        -0.6538
      8 C5         -7.1882    3.0070   -1.0256 C.ar      1 <0>         0.6296
      9 N3         -5.8807    3.2317   -0.9139 N.ar      1 <0>        -0.6266
     10 N4         -7.9479    3.7653   -1.8928 N.pl3     1 <0>        -0.5798
     11 C6         -9.3875    3.5210   -2.0109 C.3       1 <0>         0.1029
     12 C7         -7.3148    4.8148   -2.6954 C.3       1 <0>         0.1013
     13 N5         -7.6163    0.3375    1.2943 N.pl3     1 <0>        -0.8289
     14 S1         -2.7849    1.1787    0.0194 S.3       1 <0>         0.0787
     15 C8         -1.1221    1.7615    0.0163 C.2       1 <0>         0.2570
     16 N6         -0.0111    0.9658    0.0074 N.pl3     1 <0>        -0.5906
     17 H2         -0.1186   -0.1289    0.0063 H         1 <0>         0.4612
     18 C9          1.0936    1.8033    0.0013 C.ar      1 <0>         0.0844
     19 C10         2.4633    1.5862   -0.0134 C.ar      1 <0>        -0.1157
     20 C11         3.3301    2.6614   -0.0163 C.ar      1 <0>         0.0870
     21 C12         2.8372    3.9617   -0.0046 C.ar      1 <0>         0.0675
     22 C13         1.4783    4.1930    0.0105 C.ar      1 <0>        -0.0728
     23 C14         0.5904    3.1140    0.0132 C.ar      1 <0>         0.0754
     24 N7         -0.7660    3.0223    0.0256 N.2       1 <0>        -0.4870
     25 F1          3.6956    5.0050   -0.0076 F         1 <0>        -0.1234
     26 F2          4.6642    2.4487   -0.0301 F         1 <0>        -0.1218
     27 H3         -2.3033    3.6782    1.4296 H         1 <0>         0.0945
     28 H4         -3.7199    2.8768    2.1897 H         1 <0>         0.0697
     29 H5         -3.9225    4.4517    1.3500 H         1 <0>         0.0684
     30 H6         -9.8186    4.2178   -2.7448 H         1 <0>         0.0799
     31 H7         -9.8670    3.6753   -1.0330 H         1 <0>         0.0632
     32 H8         -9.5577    2.4864   -2.3436 H         1 <0>         0.0632
     33 H9         -8.0744    5.3066   -3.3208 H         1 <0>         0.0799
     34 H10        -6.5427    4.3684   -3.3393 H         1 <0>         0.0652
     35 H11        -6.8520    5.5573   -2.0287 H         1 <0>         0.0653
     36 H12        -8.6969    0.1503    1.2090 H         1 <0>         0.4399
     37 H13        -7.0065   -0.2646    1.9840 H         1 <0>         0.4422
     38 H14         2.8513    0.5783   -0.0228 H         1 <0>         0.1487
     39 H15         1.1011    5.2050    0.0199 H         1 <0>         0.1558
@<TRIPOS>BOND
     1    1    2 1
     2    1   27 1
     3    1   28 1
     4    1   29 1
     5    2    3 1
     6    2    4 1
     7    2   14 1
     8    4    9 ar
     9    4    5 ar
    10    5    6 ar
    11    6    7 ar
    12    6   13 1
    13    7    8 ar
    14    8    9 ar
    15    8   10 1
    16   10   11 1
    17   10   12 1
    18   11   30 1
    19   11   31 1
    20   11   32 1
    21   12   33 1
    22   12   34 1
    23   12   35 1
    24   13   36 1
    25   13   37 1
    26   14   15 1
    27   15   24 2
    28   15   16 1
    29   16   17 1
    30   16   18 1
    31   18   23 ar
    32   18   19 ar
    33   19   20 ar
    34   19   38 1
    35   20   21 ar
    36   20   26 1
    37   21   22 ar
    38   21   25 1
    39   22   23 ar
    40   22   39 1
    41   23   24 1
@<TRIPOS>MOLECULE
ZINC40916366
   42    44     0     0     0
SMALL
USER_CHARGES

@<TRIPOS>ATOM
      1 C1          0.8815    0.4566   -0.4356 C.3       1 <0>        -0.1120
      2 C2          0.6767   -1.0294   -0.2912 C.2       1 <0>         0.2641
      3 C3         -0.5742   -1.5111   -0.2606 C.2       1 <0>        -0.3201
      4 C4         -0.8878   -2.9756   -0.1077 C.3       1 <0>         0.2707
      5 H1         -1.6257   -3.2691   -0.8543 H         1 <0>         0.1033
      6 N1          0.3321   -3.7561   -0.2956 N.pl3     1 <0>        -0.3844
      7 C5          1.5738   -3.2116   -0.3286 C.2       1 <0>         0.4923
      8 N2          2.4328   -4.1782   -0.5026 N.2       1 <0>        -0.5454
      9 C6          1.7834   -5.3436   -0.5890 C.2       1 <0>         0.2191
     10 N3          0.4963   -5.1294   -0.4686 N.2       1 <0>        -0.2939
     11 N4          1.7778   -1.8454   -0.2011 N.pl3     1 <0>        -0.6080
     12 C7         -1.4397   -3.2299    1.2714 C.ar      1 <0>        -0.0653
     13 C8         -0.6795   -2.9278    2.3863 C.ar      1 <0>        -0.1288
     14 C9         -1.1829   -3.1600    3.6527 C.ar      1 <0>        -0.0749
     15 C10        -2.4473   -3.6951    3.8074 C.ar      1 <0>        -0.1416
     16 C11        -3.2118   -3.9990    2.6906 C.ar      1 <0>         0.1406
     17 C12        -2.7066   -3.7594    1.4207 C.ar      1 <0>        -0.1940
     18 O1         -4.4558   -4.5254    2.8401 O.3       1 <0>        -0.3068
     19 C13        -5.2316   -4.7039    1.6534 C.3       1 <0>         0.0772
     20 C14        -4.8675   -6.0396    1.0021 C.3       1 <0>        -0.1839
     21 C15        -6.7192   -4.6997    2.0111 C.3       1 <0>        -0.1505
     22 C16        -1.6506   -0.5998   -0.3769 C.2       1 <0>         0.5879
     23 O2         -1.4292    0.5912   -0.5014 O.2       1 <0>        -0.5474
     24 N5         -2.9206   -1.0500   -0.3500 N.am      1 <0>        -0.8555
     25 H2          1.9490    0.6768   -0.4477 H         1 <0>         0.0639
     26 H3          0.4298    0.7968   -1.3675 H         1 <0>         0.1112
     27 H4          0.4139    0.9711    0.4039 H         1 <0>         0.1089
     28 H5          2.2462   -6.3084   -0.7350 H         1 <0>         0.2270
     29 H6          2.6641   -1.4811   -0.0506 H         1 <0>         0.4419
     30 H7          0.3094   -2.5101    2.2675 H         1 <0>         0.1135
     31 H8         -0.5872   -2.9232    4.5219 H         1 <0>         0.1326
     32 H9         -2.8399   -3.8770    4.7969 H         1 <0>         0.1344
     33 H10        -3.3018   -3.9908    0.5497 H         1 <0>         0.1314
     34 H11        -5.0230   -3.8915    0.9573 H         1 <0>         0.0712
     35 H12        -5.0760   -6.8521    1.6981 H         1 <0>         0.0697
     36 H13        -5.4592   -6.1758    0.0969 H         1 <0>         0.0742
     37 H14        -3.8077   -6.0426    0.7472 H         1 <0>         0.0642
     38 H15        -6.9786   -3.7482    2.4751 H         1 <0>         0.0661
     39 H16        -7.3110   -4.8359    1.1059 H         1 <0>         0.0789
     40 H17        -6.9278   -5.5122    2.7072 H         1 <0>         0.0687
     41 H18        -3.0969   -1.9986   -0.2508 H         1 <0>         0.3943
     42 H19        -3.6584   -0.4253   -0.4297 H         1 <0>         0.4053
@<TRIPOS>BOND
     1    1    2 1
     2    1   25 1
     3    1   26 1
     4    1   27 1
     5    2   11 1
     6    2    3 2
     7    3    4 1
     8    3   22 1
     9    4    5 1
    10    4    6 1
    11    4   12 1
    12    6   10 1
    13    6    7 1
    14    7    8 2
    15    7   11 1
    16    8    9 1
    17    9   10 2
    18    9   28 1
    19   11   29 1
    20   12   17 ar
    21   12   13 ar
    22   13   14 ar
    23   13   30 1
    24   14   15 ar
    25   14   31 1
    26   15   16 ar
    27   15   32 1
    28   16   17 ar
    29   16   18 1
    30   17   33 1
    31   18   19 1
    32   19   20 1
    33   19   21 1
    34   19   34 1
    35   20   35 1
    36   20   36 1
    37   20   37 1
    38   21   38 1
    39   21   39 1
    40   21   40 1
    41   22   23 2
    42   22   24 am
    43   24   41 1
    44   24   42 1
@<TRIPOS>MOLECULE
ZINC50672140
   34    36     0     0     0
SMALL
USER_CHARGES

@<TRIPOS>ATOM
      1 C1         -0.0187    1.5258    0.0104 C.3       1 <0>        -0.1542
      2 C2          0.0021   -0.0041    0.0020 C.3       1 <0>        -0.0417
      3 C3          0.7421   -0.5109    1.2415 C.3       1 <0>        -0.1542
      4 C4         -1.4117   -0.5257    0.0127 C.2       1 <0>         0.0978
      5 C5         -1.8430   -1.2969   -0.9853 C.2       1 <0>        -0.1869
      6 S1         -3.5287   -1.6310   -0.5004 S.3       1 <0>        -0.0191
      7 C6         -3.5329   -0.7006    1.0246 C.2       1 <0>         0.5025
      8 N1         -2.2445   -0.2118    1.0466 N.pl3     1 <0>        -0.6012
      9 N2         -4.5002   -0.5322    1.8922 N.2       1 <0>        -0.9729
     10 S2         -5.9748   -1.2409    1.6362 S.o2      1 <0>         2.6862
     11 O1         -6.5290   -0.6205    0.4842 O.2       1 <0>        -0.9623
     12 O2         -5.7712   -2.6446    1.7220 O.2       1 <0>        -0.9569
     13 C7         -7.0082   -0.7980    2.9929 C.2       1 <0>        -0.6434
     14 C8         -7.1400   -1.4790    4.1498 C.2       1 <0>         0.4514
     15 N3         -8.0171   -0.8225    4.9281 N.2       1 <0>        -0.4860
     16 C9         -8.4332    0.2390    4.2970 C.2       1 <0>         0.2481
     17 N4         -7.8356    0.3260    3.0683 N.pl3     1 <0>        -0.3840
     18 C10        -8.1748    1.4065    2.2840 C.2       1 <0>         0.0374
     19 C11        -9.0443    2.3182    2.7176 C.2       1 <0>        -0.1847
     20 S3         -9.4718    1.6813    4.3307 S.3       1 <0>         0.1639
     21 N5         -6.4751   -2.6692    4.4835 N.pl3     1 <0>        -0.8287
     22 H1          1.0039    1.9031    0.0027 H         1 <0>         0.0737
     23 H2         -0.5459    1.8868   -0.8726 H         1 <0>         0.0655
     24 H3         -0.5289    1.8773    0.9072 H         1 <0>         0.0557
     25 H4          0.5123   -0.3556   -0.8948 H         1 <0>         0.1095
     26 H5          0.2319   -0.1594    2.1383 H         1 <0>         0.0559
     27 H6          0.7568   -1.6008    1.2356 H         1 <0>         0.0658
     28 H7          1.7647   -0.1336    1.2338 H         1 <0>         0.0737
     29 H8         -1.3098   -1.6329   -1.8624 H         1 <0>         0.2128
     30 H9         -7.7303    1.5162    1.3058 H         1 <0>         0.1865
     31 H10        -9.4024    3.2075    2.2204 H         1 <0>         0.2251
     32 H11        -5.8565   -3.0720    3.8542 H         1 <0>         0.4238
     33 H12        -6.6342   -3.0890    5.3433 H         1 <0>         0.4149
     34 H13        -1.9378    0.3455    1.7789 H         1 <0>         0.4261
@<TRIPOS>BOND
     1    1    2 1
     2    1   22 1
     3    1   23 1
     4    1   24 1
     5    2    3 1
     6    2    4 1
     7    2   25 1
     8    3   26 1
     9    3   27 1
    10    3   28 1
    11    4    8 1
    12    4    5 2
    13    5    6 1
    14    5   29 1
    15    6    7 1
    16    7    8 1
    17    7    9 2
    18    8   34 1
    19    9   10 1
    20   10   11 2
    21   10   12 2
    22   10   13 1
    23   13   17 1
    24   13   14 2
    25   14   15 1
    26   14   21 1
    27   15   16 2
    28   16   20 1
    29   16   17 1
    30   17   18 1
    31   18   19 2
    32   18   30 1
    33   19   20 1
    34   19   31 1
    35   21   32 1
    36   21   33 1
@<TRIPOS>MOLECULE
ZINC66059165
   38    39     0     0     0
SMALL
USER_CHARGES

@<TRIPOS>ATOM
      1 C1          0.5702   -0.9338   -1.0721 C.3       1 <0>        -0.1470
      2 C2          0.0021   -0.0041    0.0020 C.3       1 <0>        -0.0663
      3 C3         -1.5113   -0.2052    0.1021 C.3       1 <0>        -0.1550
      4 C4          0.6399   -0.3217    1.3299 C.2       1 <0>         0.0442
      5 C5         -0.0339   -1.0244    2.2773 C.2       1 <0>        -0.2610
      6 C6          0.5849   -1.3094    3.5118 C.2       1 <0>         0.5119
      7 O1         -0.0305   -1.9406    4.3523 O.2       1 <0>        -0.4605
      8 O2          1.8349   -0.9034    3.7843 O.3       1 <0>        -0.2701
      9 C7          2.5594   -0.2014    2.8868 C.ar      1 <0>         0.1924
     10 C8          2.0053    0.1134    1.6317 C.ar      1 <0>        -0.1861
     11 C9          2.7544    0.8363    0.6968 C.ar      1 <0>        -0.0129
     12 C10         4.0247    1.2301    1.0041 C.ar      1 <0>        -0.2281
     13 C11         4.5805    0.9169    2.2427 C.ar      1 <0>         0.1864
     14 C12         3.8491    0.2110    3.1844 C.ar      1 <0>        -0.1676
     15 O3          5.8453    1.3152    2.5332 O.3       1 <0>        -0.2794
     16 C13         6.5423    2.0486    1.5240 C.3       1 <0>         0.0425
     17 C14         7.9200    2.4028    2.0217 C.2       1 <0>         0.5169
     18 O4          8.2703    2.0610    3.1309 O.2       1 <0>        -0.4344
     19 N1          8.7627    3.0995    1.2337 N.am      1 <0>        -0.6877
     20 C15         9.9947    3.4163    1.6788 C.2       1 <0>         0.6980
     21 O5         10.3459    3.0736    2.7908 O.2       1 <0>        -0.5280
     22 N2         10.8374    4.1130    0.8908 N.am      1 <0>        -0.8543
     23 H1          0.3971   -1.9706   -0.7837 H         1 <0>         0.0626
     24 H2          0.0769   -0.7341   -2.0234 H         1 <0>         0.0699
     25 H3          1.6412   -0.7591   -1.1744 H         1 <0>         0.0611
     26 H4          0.2142    1.0313   -0.2645 H         1 <0>         0.0952
     27 H5         -1.7275   -1.2609    0.2660 H         1 <0>         0.0644
     28 H6         -1.9012    0.3792    0.9356 H         1 <0>         0.0637
     29 H7         -1.9835    0.1230   -0.8239 H         1 <0>         0.0678
     30 H8         -1.0412   -1.3635    2.0856 H         1 <0>         0.1667
     31 H9          2.3290    1.0817   -0.2651 H         1 <0>         0.1450
     32 H10         4.6029    1.7878    0.2822 H         1 <0>         0.1421
     33 H11         4.2867   -0.0278    4.1424 H         1 <0>         0.1564
     34 H12         6.6266    1.4387    0.6246 H         1 <0>         0.1071
     35 H13         5.9933    2.9616    1.2938 H         1 <0>         0.1071
     36 H14         8.4824    3.3730    0.3463 H         1 <0>         0.4123
     37 H15        10.5572    4.3865    0.0034 H         1 <0>         0.4009
     38 H16        11.7242    4.3410    1.2112 H         1 <0>         0.4233
@<TRIPOS>BOND
     1    1    2 1
     2    1   23 1
     3    1   24 1
     4    1   25 1
     5    2    3 1
     6    2    4 1
     7    2   26 1
     8    3   27 1
     9    3   28 1
    10    3   29 1
    11    4   10 1
    12    4    5 2
    13    5    6 1
    14    5   30 1
    15    6    7 2
    16    6    8 1
    17    8    9 1
    18    9   14 ar
    19    9   10 ar
    20   10   11 ar
    21   11   12 ar
    22   11   31 1
    23   12   13 ar
    24   12   32 1
    25   13   14 ar
    26   13   15 1
    27   14   33 1
    28   15   16 1
    29   16   17 1
    30   16   34 1
    31   16   35 1
    32   17   18 2
    33   17   19 am
    34   19   20 am
    35   19   36 1
    36   20   21 2
    37   20   22 am
    38   22   37 1
    39   22   38 1
@<TRIPOS>MOLECULE
ZINC40172231
   38    39     0     0     0
SMALL
USER_CHARGES

@<TRIPOS>ATOM
      1 C1         -0.0184    1.5028    0.0103 C.3       1 <0>        -0.0884
      2 C2          0.0021   -0.0041    0.0020 C.2       1 <0>        -0.1173
      3 C3          0.0082   -0.8036   -1.0737 C.2       1 <0>        -0.0029
      4 O1          0.0282   -2.0885   -0.6799 O.3       1 <0>        -0.1466
      5 C4          0.0359   -2.1800    0.6569 C.2       1 <0>         0.3077
      6 C5          0.0258   -0.8945    1.1732 C.2       1 <0>        -0.1599
      7 C6          0.0340   -0.5133    2.5535 C.1       1 <0>         0.2803
      8 N1          0.0404   -0.2109    3.6485 N.1       1 <0>        -0.4114
      9 N2          0.0559   -3.3525    1.3925 N.am      1 <0>        -0.6243
     10 C7          0.0702   -4.5435    0.7619 C.2       1 <0>         0.4920
     11 O2          0.0655   -4.5880   -0.4501 O.2       1 <0>        -0.4570
     12 C8          0.0920   -5.8199    1.5627 C.3       1 <0>         0.1205
     13 H1         -0.7946   -5.8674    2.1950 H         1 <0>         0.1427
     14 C9          1.3457   -5.8507    2.4392 C.3       1 <0>        -0.1691
     15 N3          0.1044   -6.9675    0.6522 N.pl3     1 <0>        -0.4948
     16 C10         1.0645   -7.2426   -0.2800 C.2       1 <0>         0.5138
     17 N4          0.7266   -8.3488   -0.8955 N.2       1 <0>        -0.3658
     18 N5         -0.4815   -8.7983   -0.3467 N.2       1 <0>        -0.2924
     19 C11        -0.8394   -7.9541    0.5902 C.2       1 <0>         0.1997
     20 S1         -2.2850   -8.0691    1.5910 S.3       1 <0>        -0.0192
     21 C12        -3.0982   -9.5849    1.0150 C.3       1 <0>        -0.1313
     22 N6          2.1996   -6.4826   -0.5314 N.pl3     1 <0>        -0.8219
     23 C13        -0.0057   -0.3338   -2.5055 C.3       1 <0>        -0.0747
     24 H2          1.0042    1.8801    0.0026 H         1 <0>         0.0774
     25 H3         -0.5455    1.8639   -0.8728 H         1 <0>         0.0774
     26 H4         -0.5286    1.8543    0.9071 H         1 <0>         0.0699
     27 H5          0.0597   -3.3169    2.3619 H         1 <0>         0.4364
     28 H6          1.3365   -4.9969    3.1167 H         1 <0>         0.0915
     29 H7          1.3615   -6.7740    3.0184 H         1 <0>         0.0941
     30 H8          2.2323   -5.8033    1.8069 H         1 <0>         0.0739
     31 H9         -2.4296  -10.4335    1.1602 H         1 <0>         0.0945
     32 H10        -4.0151   -9.7435    1.5825 H         1 <0>         0.1182
     33 H11        -3.3383   -9.4885   -0.0439 H         1 <0>         0.0940
     34 H12         2.3649   -5.6743   -0.0212 H         1 <0>         0.4031
     35 H13         2.8269   -6.7601   -1.2172 H         1 <0>         0.4260
     36 H14         1.0185   -0.2057   -2.8559 H         1 <0>         0.0869
     37 H15        -0.5121   -1.0734   -3.1257 H         1 <0>         0.0813
     38 H16        -0.5336    0.6176   -2.5706 H         1 <0>         0.0957
@<TRIPOS>BOND
     1    1    2 1
     2    1   24 1
     3    1   25 1
     4    1   26 1
     5    2    6 1
     6    2    3 2
     7    3    4 1
     8    3   23 1
     9    4    5 1
    10    5    6 2
    11    5    9 1
    12    6    7 1
    13    7    8 3
    14    9   10 am
    15    9   27 1
    16   10   11 2
    17   10   12 1
    18   12   13 1
    19   12   14 1
    20   12   15 1
    21   14   28 1
    22   14   29 1
    23   14   30 1
    24   15   19 1
    25   15   16 1
    26   16   17 2
    27   16   22 1
    28   17   18 1
    29   18   19 2
    30   19   20 1
    31   20   21 1
    32   21   31 1
    33   21   32 1
    34   21   33 1
    35   22   34 1
    36   22   35 1
    37   23   36 1
    38   23   37 1
    39   23   38 1
@<TRIPOS>MOLECULE
ZINC50674821
   38    39     0     0     0
SMALL
USER_CHARGES

@<TRIPOS>ATOM
      1 C1          7.2245   -2.5261    2.7395 C.ar      1 <0>         0.0348
      2 C2          6.8385   -3.2574    1.6332 C.ar      1 <0>        -0.2032
      3 C3          5.8531   -2.7656    0.7869 C.ar      1 <0>         0.3525
      4 C4          5.2589   -1.5390    1.0566 C.ar      1 <0>        -0.7614
      5 C5          5.6496   -0.8131    2.1644 C.ar      1 <0>         0.0905
      6 C6          6.6312   -1.3058    3.0050 C.ar      1 <0>        -0.1243
      7 N1          7.0474   -0.5249    4.1914 N.pl3     1 <0>         0.0427
      8 O1          7.9053   -0.9543    4.9272 O.2       1 <0>        -0.1624
      9 O2          6.5294    0.5423    4.4248 O.3       1 <0>        -0.1628
     10 S1          4.0087   -0.9102   -0.0140 S.o2      1 <0>         2.6845
     11 O3          3.0568   -1.9517   -0.1825 O.2       1 <0>        -0.9601
     12 O4          3.6544    0.3724    0.4847 O.2       1 <0>        -0.9038
     13 N2          4.7094   -0.6654   -1.4943 N.pl3     1 <0>        -0.9913
     14 C7          4.3305   -1.4927   -2.6479 C.3       1 <0>         0.1064
     15 C8          3.9176   -0.5719   -3.8005 C.3       1 <0>        -0.1314
     16 C9          5.0462    0.4221   -4.0836 C.3       1 <0>        -0.1195
     17 C10         5.2933    1.2829   -2.8425 C.3       1 <0>        -0.1246
     18 C11         5.7175    0.3872   -1.6805 C.3       1 <0>         0.1613
     19 H1          6.6824   -0.0667   -1.9063 H         1 <0>         0.0873
     20 C12         5.8271    1.2239   -0.4042 C.3       1 <0>         0.0389
     21 O5          4.6645    2.0441   -0.2711 O.3       1 <0>        -0.5245
     22 N3          5.4606   -3.5023   -0.3330 N.pl3     1 <0>        -0.8463
     23 H2          7.9876   -2.9100    3.4005 H         1 <0>         0.1622
     24 H3          7.3026   -4.2104    1.4262 H         1 <0>         0.1557
     25 H4          5.1881    0.1404    2.3746 H         1 <0>         0.1709
     26 H5          5.1798   -2.1033   -2.9543 H         1 <0>         0.0720
     27 H6          3.4938   -2.1365   -2.3768 H         1 <0>         0.0973
     28 H7          3.7263   -1.1688   -4.6923 H         1 <0>         0.0788
     29 H8          3.0140   -0.0278   -3.5256 H         1 <0>         0.0721
     30 H9          5.9561   -0.1233   -4.3342 H         1 <0>         0.0627
     31 H10         4.7650    1.0625   -4.9195 H         1 <0>         0.0694
     32 H11         6.0813    2.0062   -3.0525 H         1 <0>         0.0744
     33 H12         4.3768    1.8095   -2.5767 H         1 <0>         0.0874
     34 H13         5.9057    0.5622    0.4584 H         1 <0>         0.0373
     35 H14         6.7133    1.8561   -0.4592 H         1 <0>         0.0704
     36 H15         4.7001    2.6588    0.4745 H         1 <0>         0.3811
     37 H16         5.9260   -4.3221   -0.5617 H         1 <0>         0.4176
     38 H17         4.7227   -3.1941   -0.8820 H         1 <0>         0.4074
@<TRIPOS>BOND
     1    1    6 ar
     2    1    2 ar
     3    1   23 1
     4    2    3 ar
     5    2   24 1
     6    3    4 ar
     7    3   22 1
     8    4    5 ar
     9    4   10 1
    10    5    6 ar
    11    5   25 1
    12    6    7 1
    13    7    8 2
    14    7    9 1
    15   10   11 2
    16   10   12 2
    17   10   13 1
    18   13   18 1
    19   13   14 1
    20   14   15 1
    21   14   26 1
    22   14   27 1
    23   15   16 1
    24   15   28 1
    25   15   29 1
    26   16   17 1
    27   16   30 1
    28   16   31 1
    29   17   18 1
    30   17   32 1
    31   17   33 1
    32   18   19 1
    33   18   20 1
    34   20   21 1
    35   20   34 1
    36   20   35 1
    37   21   36 1
    38   22   37 1
    39   22   38 1
@<TRIPOS>MOLECULE
ZINC16295125
   44    45     0     0     0
SMALL
USER_CHARGES

@<TRIPOS>ATOM
      1 C1         -0.6968   -2.5356    0.9558 C.3       1 <0>        -0.1574
      2 C2          0.7248   -1.9914    0.8011 C.3       1 <0>        -0.0735
      3 C3          1.2009   -2.2099   -0.6364 C.3       1 <0>        -0.1539
      4 C4          0.7356   -0.4951    1.1202 C.3       1 <0>        -0.1059
      5 H1          0.0789    0.0292    0.4259 H         1 <0>         0.1346
      6 C5          0.2511   -0.2787    2.5306 C.2       1 <0>         0.5294
      7 O1          1.0493   -0.0926    3.4239 O.2       1 <0>        -0.4433
      8 N1         -1.0696   -0.2920    2.7990 N.am      1 <0>        -0.6818
      9 C6         -1.5029   -0.0985    4.0605 C.2       1 <0>         0.6979
     10 O2         -0.7027    0.0881    4.9560 O.2       1 <0>        -0.5302
     11 N2         -2.8236   -0.1118    4.3288 N.am      1 <0>        -0.8554
     12 S1          2.4246    0.1459    0.9559 S.3       1 <0>         0.0946
     13 C7          2.2377    1.8893    1.1307 C.2       1 <0>         0.2074
     14 N3          1.1038    2.5462    1.2452 N.2       1 <0>        -0.3380
     15 N4          1.3235    3.8067    1.3553 N.2       1 <0>        -0.0322
     16 N5          2.5897    4.0457    1.3201 N.2       1 <0>        -0.0719
     17 N6          3.2344    2.8044    1.1782 N.pl3     1 <0>        -0.3512
     18 C8          4.6757    2.5549    1.0965 C.3       1 <0>         0.1526
     19 C9          5.3533    3.0567    2.3732 C.3       1 <0>        -0.1289
     20 C10         6.8586    2.7961    2.2879 C.3       1 <0>        -0.1153
     21 C11         7.4365    3.5355    1.0795 C.3       1 <0>        -0.1262
     22 C12         6.7589    3.0337   -0.1973 C.3       1 <0>        -0.1153
     23 C13         5.2536    3.2943   -0.1119 C.3       1 <0>        -0.1274
     24 H2         -1.3819   -1.9387    0.3537 H         1 <0>         0.0665
     25 H3         -0.7275   -3.5723    0.6206 H         1 <0>         0.0784
     26 H4         -0.9938   -2.4834    2.0033 H         1 <0>         0.0611
     27 H5          1.3906   -2.5142    1.4878 H         1 <0>         0.0931
     28 H6          0.5350   -1.6871   -1.3231 H         1 <0>         0.0669
     29 H7          2.2136   -1.8222   -0.7466 H         1 <0>         0.0672
     30 H8          1.1931   -3.2759   -0.8637 H         1 <0>         0.0722
     31 H9         -1.7083   -0.4410    2.0843 H         1 <0>         0.4113
     32 H10        -3.4623   -0.2608    3.6141 H         1 <0>         0.4004
     33 H11        -3.1355    0.0275    5.2367 H         1 <0>         0.4219
     34 H12         4.8537    1.4851    0.9870 H         1 <0>         0.1122
     35 H13         5.1754    4.1265    2.4826 H         1 <0>         0.0821
     36 H14         4.9416    2.5299    3.2341 H         1 <0>         0.0743
     37 H15         7.3413    3.1536    3.1975 H         1 <0>         0.0761
     38 H16         7.0365    1.7263    2.1785 H         1 <0>         0.0693
     39 H17         7.2585    4.6053    1.1889 H         1 <0>         0.0676
     40 H18         8.5088    3.3498    1.0187 H         1 <0>         0.0712
     41 H19         7.1705    3.5605   -1.0582 H         1 <0>         0.0759
     42 H20         6.9368    1.9640   -0.3067 H         1 <0>         0.0690
     43 H21         4.7709    2.9369   -1.0215 H         1 <0>         0.0722
     44 H22         5.0757    4.3641   -0.0025 H         1 <0>         0.0826
@<TRIPOS>BOND
     1    1    2 1
     2    1   24 1
     3    1   25 1
     4    1   26 1
     5    2    3 1
     6    2    4 1
     7    2   27 1
     8    3   28 1
     9    3   29 1
    10    3   30 1
    11    4    5 1
    12    4    6 1
    13    4   12 1
    14    6    7 2
    15    6    8 am
    16    8    9 am
    17    8   31 1
    18    9   10 2
    19    9   11 am
    20   11   32 1
    21   11   33 1
    22   12   13 1
    23   13   17 1
    24   13   14 2
    25   14   15 1
    26   15   16 2
    27   16   17 1
    28   17   18 1
    29   18   23 1
    30   18   19 1
    31   18   34 1
    32   19   20 1
    33   19   35 1
    34   19   36 1
    35   20   21 1
    36   20   37 1
    37   20   38 1
    38   21   22 1
    39   21   39 1
    40   21   40 1
    41   22   23 1
    42   22   41 1
    43   22   42 1
    44   23   43 1
    45   23   44 1
@<TRIPOS>MOLECULE
ZINC65181235
   42    43     0     0     0
SMALL
USER_CHARGES

@<TRIPOS>ATOM
      1 C1         -0.0184    1.5028    0.0103 C.3       1 <0>        -0.1258
      2 C2          0.0021   -0.0041    0.0020 C.2       1 <0>         0.0498
      3 C3          0.0053   -0.6974   -1.2105 C.2       1 <0>        -0.2615
      4 C4          0.0249   -2.1075   -1.1132 C.2       1 <0>         0.1338
      5 N1          0.0291   -2.8835   -2.1895 N.2       1 <0>        -0.5016
      6 C5          0.0154   -2.3821   -3.3946 C.2       1 <0>         0.4108
      7 N2         -0.0039   -1.0444   -3.6142 N.am      1 <0>        -0.5346
      8 C6         -0.0094   -0.1661   -2.5925 C.2       1 <0>         0.5563
      9 O1         -0.0264    1.0342   -2.8003 O.2       1 <0>        -0.4967
     10 C7         -0.0187   -0.5435   -4.9908 C.3       1 <0>         0.0601
     11 S1          0.0383   -2.3950    0.6384 S.3       1 <0>         0.1785
     12 C8          0.0231   -0.6939    1.1786 C.2       1 <0>        -0.2583
     13 C9          0.0296   -0.1684    2.5475 C.2       1 <0>         0.6172
     14 O2          0.0152    1.0335    2.7380 O.2       1 <0>        -0.5065
     15 N3          0.0515   -1.0165    3.5948 N.am      1 <0>        -0.5262
     16 N4          0.0577   -0.5144    4.9027 N.am      1 <0>        -0.5264
     17 C10         0.0796   -1.3624    5.9500 C.2       1 <0>         0.7141
     18 O3          0.0849   -0.9267    7.0851 O.2       1 <0>        -0.5638
     19 N5          0.0956   -2.6935    5.7391 N.am      1 <0>        -0.7428
     20 C11         0.1194   -3.6153    6.8774 C.3       1 <0>         0.1378
     21 C12         0.1339   -5.0572    6.3659 C.3       1 <0>        -0.1098
     22 C13         0.2844   -6.0164    7.5484 C.3       1 <0>        -0.1461
     23 C14        -1.1769   -5.3518    5.6338 C.3       1 <0>        -0.1512
     24 H1          1.0042    1.8801    0.0026 H         1 <0>         0.0828
     25 H2         -0.5455    1.8639   -0.8728 H         1 <0>         0.0847
     26 H3         -0.5286    1.8543    0.9071 H         1 <0>         0.0944
     27 H4          0.0199   -3.0524   -4.2415 H         1 <0>         0.2221
     28 H5         -0.0113   -1.3849   -5.6837 H         1 <0>         0.1003
     29 H6         -0.9177    0.0515   -5.1514 H         1 <0>         0.0884
     30 H7          0.8621    0.0755   -5.1617 H         1 <0>         0.0884
     31 H8          0.0630   -1.9744    3.4430 H         1 <0>         0.4169
     32 H9          0.0462    0.4436    5.0546 H         1 <0>         0.4463
     33 H10         0.0913   -3.0411    4.8335 H         1 <0>         0.3900
     34 H11         1.0129   -3.4326    7.4743 H         1 <0>         0.0725
     35 H12        -0.7668   -3.4567    7.4920 H         1 <0>         0.0729
     36 H13         0.9708   -5.1912    5.6806 H         1 <0>         0.0779
     37 H14        -0.5526   -5.8824    8.2337 H         1 <0>         0.0601
     38 H15         0.2947   -7.0436    7.1839 H         1 <0>         0.0626
     39 H16         1.2182   -5.8065    8.0699 H         1 <0>         0.0598
     40 H17        -1.1666   -6.3790    5.2694 H         1 <0>         0.0614
     41 H18        -2.0139   -5.2178    6.3192 H         1 <0>         0.0601
     42 H19        -1.2842   -4.6685    4.7914 H         1 <0>         0.0513
@<TRIPOS>BOND
     1    1    2 1
     2    1   24 1
     3    1   25 1
     4    1   26 1
     5    2   12 2
     6    2    3 1
     7    3    8 1
     8    3    4 2
     9    4    5 1
    10    4   11 1
    11    5    6 2
    12    6    7 1
    13    6   27 1
    14    7    8 am
    15    7   10 1
    16    8    9 2
    17   10   28 1
    18   10   29 1
    19   10   30 1
    20   11   12 1
    21   12   13 1
    22   13   14 2
    23   13   15 am
    24   15   16 1
    25   15   31 1
    26   16   17 am
    27   16   32 1
    28   17   18 2
    29   17   19 am
    30   19   20 1
    31   19   33 1
    32   20   21 1
    33   20   34 1
    34   20   35 1
    35   21   22 1
    36   21   23 1
    37   21   36 1
    38   22   37 1
    39   22   38 1
    40   22   39 1
    41   23   40 1
    42   23   41 1
    43   23   42 1
@<TRIPOS>MOLECULE
ZINC67205629
   45    48     0     0     0
SMALL
USER_CHARGES

@<TRIPOS>ATOM
      1 C1         -0.0163    1.3517    0.0095 C.2       1 <0>        -0.0376
      2 C2          1.1964    2.0691    0.0017 C.2       1 <0>        -0.1705
      3 C3          2.3749    1.4198   -0.0134 C.2       1 <0>         0.1247
      4 N1          2.4187    0.0482   -0.0212 N.pl3     1 <0>        -0.4319
      5 C4          1.2468   -0.6812   -0.0135 C.2       1 <0>         0.2979
      6 C5          0.0021   -0.0041    0.0020 C.2       1 <0>        -0.1225
      7 N2          1.5523   -1.9592   -0.0234 N.2       1 <0>        -0.2922
      8 N3          2.9487   -2.0743   -0.0379 N.pl3     1 <0>        -0.4740
      9 C6          3.4618   -0.8294   -0.0363 C.2       1 <0>         0.6021
     10 N4          4.7601   -0.5113   -0.0479 N.2       1 <0>        -0.6565
     11 C7          5.6770   -1.4686   -0.0621 C.2       1 <0>         0.5008
     12 O1          5.3367   -2.6369   -0.0645 O.2       1 <0>        -0.5900
     13 C8          7.1406   -1.1100   -0.0751 C.3       1 <0>        -0.1098
     14 C9          7.9791   -2.3897   -0.0901 C.3       1 <0>        -0.1059
     15 C10         9.4651   -2.0256   -0.1034 C.3       1 <0>        -0.1192
     16 C11        10.3036   -3.3053   -0.1184 C.3       1 <0>        -0.1027
     17 C12        11.7896   -2.9412   -0.1317 C.3       1 <0>        -0.0225
     18 H1         12.0200   -2.2673   -0.9568 H         1 <0>         0.1147
     19 C13        12.6526   -4.1762   -0.1797 C.3       1 <0>         0.0991
     20 H2         12.1913   -4.9155    0.4751 H         1 <0>         0.0763
     21 C14        14.0331   -3.8432    0.4661 C.3       1 <0>         0.0980
     22 H3         14.5109   -3.0304   -0.0809 H         1 <0>         0.0950
     23 C15        13.7165   -3.3957    1.8912 C.3       1 <0>        -0.0604
     24 S1         12.3164   -2.2176    1.4912 S.3       1 <0>        -0.2603
     25 N5         14.7208   -5.0864    0.2004 N.am      1 <0>        -0.7350
     26 C16        14.2150   -5.5361   -0.9870 C.2       1 <0>         0.7104
     27 O2         14.7272   -6.4204   -1.6458 O.2       1 <0>        -0.5552
     28 N6         13.0852   -4.8727   -1.3550 N.am      1 <0>        -0.7251
     29 H4         -0.9580    1.8803    0.0258 H         1 <0>         0.1553
     30 H5          1.1800    3.1490    0.0077 H         1 <0>         0.1638
     31 H6          3.2958    1.9839   -0.0199 H         1 <0>         0.1814
     32 H7         -0.9225   -0.5622    0.0082 H         1 <0>         0.1645
     33 H8          7.3622   -0.5199   -0.9644 H         1 <0>         0.0950
     34 H9          7.3803   -0.5290    0.8154 H         1 <0>         0.0960
     35 H10         7.7575   -2.9797    0.7991 H         1 <0>         0.0693
     36 H11         7.7394   -2.9707   -0.9807 H         1 <0>         0.0678
     37 H12         9.6867   -1.4356   -0.9927 H         1 <0>         0.0658
     38 H13         9.7048   -1.4446    0.7872 H         1 <0>         0.0715
     39 H14        10.0820   -3.8953    0.7709 H         1 <0>         0.0792
     40 H15        10.0639   -3.8863   -1.0090 H         1 <0>         0.0784
     41 H16        13.3947   -4.2323    2.5113 H         1 <0>         0.1065
     42 H17        14.5576   -2.8683    2.3413 H         1 <0>         0.1192
     43 H18        15.3986   -5.5116    0.7488 H         1 <0>         0.4329
     44 H19        12.6616   -4.8781   -2.2276 H         1 <0>         0.4324
     45 H20         3.4547   -2.9018   -0.0467 H         1 <0>         0.4732
@<TRIPOS>BOND
     1    1    6 2
     2    1    2 1
     3    1   29 1
     4    2    3 2
     5    2   30 1
     6    3    4 1
     7    3   31 1
     8    4    9 1
     9    4    5 1
    10    5    6 1
    11    5    7 2
    12    6   32 1
    13    7    8 1
    14    8    9 1
    15    8   45 1
    16    9   10 2
    17   10   11 1
    18   11   12 2
    19   11   13 1
    20   13   14 1
    21   13   33 1
    22   13   34 1
    23   14   15 1
    24   14   35 1
    25   14   36 1
    26   15   16 1
    27   15   37 1
    28   15   38 1
    29   16   17 1
    30   16   39 1
    31   16   40 1
    32   17   18 1
    33   17   24 1
    34   17   19 1
    35   19   20 1
    36   19   28 1
    37   19   21 1
    38   21   22 1
    39   21   23 1
    40   21   25 1
    41   23   24 1
    42   23   41 1
    43   23   42 1
    44   25   26 am
    45   25   43 1
    46   26   27 2
    47   26   28 am
    48   28   44 1
@<TRIPOS>MOLECULE
ZINC08868002
   45    47     0     0     0
SMALL
USER_CHARGES
3-[(3-benzo[1,3]dioxol-5-yl-2-oxo-oxazolidin-5-yl)methyl]-1-tert-butyl-urea
@<TRIPOS>ATOM
      1 C1         -0.0031    8.4030   -4.4504 C.3       1 <0>        -0.1657
      2 C2          0.6213    8.9226   -3.1538 C.3       1 <0>         0.1861
      3 C3          0.0225   10.2881   -2.8108 C.3       1 <0>        -0.1564
      4 C4          2.1342    9.0602   -3.3357 C.3       1 <0>        -0.1646
      5 N1          0.3438    7.9807   -2.0665 N.am      1 <0>        -0.7377
      6 C5          0.7789    6.7078   -2.1501 C.2       1 <0>         0.7087
      7 O1          1.4016    6.3412   -3.1280 O.2       1 <0>        -0.5827
      8 N2          0.5236    5.8413   -1.1499 N.am      1 <0>        -0.7472
      9 C6          0.9965    4.4578   -1.2408 C.3       1 <0>         0.1336
     10 C7          0.5769    3.6918    0.0154 C.3       1 <0>         0.0581
     11 H1          0.8903    4.2279    0.9112 H         1 <0>         0.1321
     12 C8          1.1679    2.2688    0.0031 C.3       1 <0>         0.0689
     13 N3         -0.0169    1.3972    0.0097 N.am      1 <0>        -0.5667
     14 C9         -1.1175    2.1616    0.0185 C.2       1 <0>         0.6456
     15 O2         -2.2430    1.7035    0.0207 O.2       1 <0>        -0.4936
     16 O3         -0.8639    3.4752    0.0276 O.3       1 <0>        -0.3095
     17 C10         0.0021   -0.0041    0.0020 C.ar      1 <0>         0.1929
     18 C11         1.2136   -0.6818   -0.0189 C.ar      1 <0>        -0.1439
     19 C12         1.2340   -2.0634   -0.0211 C.ar      1 <0>        -0.0689
     20 C13         0.0460   -2.7763   -0.0132 C.ar      1 <0>         0.0106
     21 C14        -1.1710   -2.0992    0.0020 C.ar      1 <0>         0.0675
     22 C15        -1.1903   -0.7143    0.0096 C.ar      1 <0>        -0.1378
     23 O4         -2.1812   -3.0173    0.0068 O.3       1 <0>        -0.3036
     24 C16        -1.5790   -4.2541   -0.4181 C.3       1 <0>         0.2127
     25 O5         -0.2024   -4.1195   -0.0179 O.3       1 <0>        -0.3069
     26 H2         -1.0809    8.3049   -4.3208 H         1 <0>         0.0529
     27 H3          0.2033    9.1038   -5.2593 H         1 <0>         0.0632
     28 H4          0.4235    7.4302   -4.6947 H         1 <0>         0.0797
     29 H5          0.4673   10.6583   -1.8871 H         1 <0>         0.0621
     30 H6          0.2289   10.9889   -3.6198 H         1 <0>         0.0759
     31 H7         -1.0553   10.1900   -2.6812 H         1 <0>         0.0623
     32 H8          2.5607    8.0874   -3.5800 H         1 <0>         0.0798
     33 H9          2.3406    9.7610   -4.1446 H         1 <0>         0.0631
     34 H10         2.5790    9.4304   -2.4120 H         1 <0>         0.0526
     35 H11        -0.1530    8.2732   -1.2864 H         1 <0>         0.3957
     36 H12         0.0268    6.1338   -0.3698 H         1 <0>         0.4006
     37 H13         2.0832    4.4500   -1.3250 H         1 <0>         0.0976
     38 H14         0.5606    3.9818   -2.1192 H         1 <0>         0.0811
     39 H15         1.7738    2.0981    0.8930 H         1 <0>         0.1123
     40 H16         1.7587    2.1050   -0.8982 H         1 <0>         0.1105
     41 H17         2.1410   -0.1285   -0.0293 H         1 <0>         0.1434
     42 H18         2.1777   -2.5885   -0.0333 H         1 <0>         0.1447
     43 H19        -2.1329   -0.1873    0.0210 H         1 <0>         0.1694
     44 H20        -1.6542   -4.3650   -1.4999 H         1 <0>         0.0869
     45 H21        -2.0432   -5.1018    0.0859 H         1 <0>         0.1347
@<TRIPOS>BOND
     1    1    2 1
     2    1   26 1
     3    1   27 1
     4    1   28 1
     5    2    3 1
     6    2    4 1
     7    2    5 1
     8    3   29 1
     9    3   30 1
    10    3   31 1
    11    4   32 1
    12    4   33 1
    13    4   34 1
    14    5    6 am
    15    5   35 1
    16    6    7 2
    17    6    8 am
    18    8    9 1
    19    8   36 1
    20    9   10 1
    21    9   37 1
    22    9   38 1
    23   10   11 1
    24   10   16 1
    25   10   12 1
    26   12   13 1
    27   12   39 1
    28   12   40 1
    29   13   14 am
    30   13   17 1
    31   14   15 2
    32   14   16 1
    33   17   22 ar
    34   17   18 ar
    35   18   19 ar
    36   18   41 1
    37   19   20 ar
    38   19   42 1
    39   20   25 1
    40   20   21 ar
    41   21   22 ar
    42   21   23 1
    43   22   43 1
    44   23   24 1
    45   24   25 1
    46   24   44 1
    47   24   45 1
@<TRIPOS>MOLECULE
ZINC19757464
   35    37     0     0     0
SMALL
USER_CHARGES
(5Z)-2-imino-5-[[5-(2-methoxy-5-nitro-phenyl)-2-furyl]methylene]thiazolidin-4-one
@<TRIPOS>ATOM
      1 C1          4.4610   -2.7257    2.7013 C.3       1 <0>         0.0118
      2 O1          5.1950   -1.9097    1.7863 O.3       1 <0>        -0.2840
      3 C2          5.9635   -2.5488    0.8728 C.ar      1 <0>         0.2164
      4 C3          6.0166   -3.9345    0.8502 C.ar      1 <0>        -0.2077
      5 C4          6.8027   -4.5808   -0.0831 C.ar      1 <0>         0.0061
      6 C5          7.5465   -3.8549   -1.0072 C.ar      1 <0>        -0.0416
      7 C6          7.5079   -2.4924   -1.0115 C.ar      1 <0>         0.0203
      8 C7          6.7195   -1.8087   -0.0666 C.ar      1 <0>        -0.0732
      9 C8          6.6790   -0.3945   -0.0601 C.2       1 <0>         0.0563
     10 C9          7.8085    0.4538   -0.0666 C.2       1 <0>        -0.1738
     11 C10         7.3580    1.7367   -0.0562 C.2       1 <0>        -0.1155
     12 C11         5.8935    1.6594   -0.0429 C.2       1 <0>        -0.0456
     13 O2          5.5600    0.3497   -0.0402 O.3       1 <0>        -0.1145
     14 C12         5.0146    2.7308   -0.0295 C.2       1 <0>         0.0779
     15 C13         3.6298    2.5024   -0.0177 C.2       1 <0>        -0.2676
     16 C14         2.5151    3.4937   -0.0025 C.2       1 <0>         0.5555
     17 O3          2.7238    4.6899    0.0024 O.2       1 <0>        -0.4946
     18 N1          1.2866    3.0008    0.0059 N.am      1 <0>        -0.7098
     19 C15         1.1067    1.6317    0.0003 C.2       1 <0>         0.3657
     20 N2         -0.0111    0.9658    0.0074 N.2       1 <0>        -0.6432
     21 S1          2.7721    0.9938   -0.0112 S.3       1 <0>         0.1285
     22 N3          8.3828   -4.5683   -1.9985 N.pl3     1 <0>        -0.0147
     23 O4          8.4202   -5.8848   -2.0028 O.2       1 <0>        -0.1674
     24 O5          9.0894   -3.8866   -2.8762 O.3       1 <0>        -0.1681
     25 H1          3.8835   -2.0839    3.3829 H         1 <0>         0.1164
     26 H2          5.1602   -3.3436    3.2837 H         1 <0>         0.0689
     27 H3          3.7742   -3.3777    2.1416 H         1 <0>         0.0705
     28 H4          5.4432   -4.5083    1.5631 H         1 <0>         0.1625
     29 H5          6.8406   -5.6601   -0.0953 H         1 <0>         0.1649
     30 H6          8.0856   -1.9377   -1.7361 H         1 <0>         0.1702
     31 H7          8.8419    0.1404   -0.0783 H         1 <0>         0.1653
     32 H8          7.9590    2.6340   -0.0572 H         1 <0>         0.1706
     33 H9          5.4023    3.7602   -0.0281 H         1 <0>         0.1858
     34 H10         0.4215    3.6801    0.0172 H         1 <0>         0.4430
     35 H11        -0.9711    1.5027    0.0194 H         1 <0>         0.3646
@<TRIPOS>BOND
     1    1    2 1
     2    1   25 1
     3    1   26 1
     4    1   27 1
     5    2    3 1
     6    3    8 ar
     7    3    4 ar
     8    4    5 ar
     9    4   28 1
    10    5    6 ar
    11    5   29 1
    12    6    7 ar
    13    6   22 1
    14    7    8 ar
    15    7   30 1
    16    8    9 1
    17    9   13 1
    18    9   10 2
    19   10   11 1
    20   10   31 1
    21   11   12 2
    22   11   32 1
    23   12   13 1
    24   12   14 1
    25   14   15 2
    26   14   33 1
    27   15   21 1
    28   15   16 1
    29   16   17 2
    30   16   18 am
    31   18   19 1
    32   18   34 1
    33   19   20 2
    34   19   21 1
    35   20   35 1
    36   22   23 2
    37   22   24 1
@<TRIPOS>MOLECULE
ZINC39893174
   41    43     0     0     0
SMALL
USER_CHARGES

@<TRIPOS>ATOM
      1 C1          1.1561    3.5897    2.3863 C.3       1 <0>        -0.1125
      2 C2          1.2375    2.1443    1.9676 C.ar      1 <0>        -0.0990
      3 C3          1.4742    1.8238    0.6386 C.ar      1 <0>        -0.0942
      4 C4          1.5518    0.5080    0.2353 C.ar      1 <0>        -0.1003
      5 C5          1.3922   -0.5107    1.1666 C.ar      1 <0>         0.0462
      6 C6          1.1531   -0.1797    2.5109 C.ar      1 <0>        -0.1077
      7 C7          1.0831    1.1569    2.9009 C.ar      1 <0>        -0.0733
      8 C8          1.0349   -1.4620    3.2153 C.2       1 <0>        -0.1706
      9 C9          1.2032   -2.4145    2.2880 C.2       1 <0>         0.0328
     10 O1          1.4133   -1.8560    1.0831 O.3       1 <0>        -0.1895
     11 C10         0.7761   -1.6663    4.6858 C.3       1 <0>        -0.0543
     12 C11        -0.7074   -1.6183    4.9462 C.2       1 <0>         0.5149
     13 O2         -1.4787   -1.4362    4.0281 O.2       1 <0>        -0.5247
     14 N1         -1.1771   -1.7778    6.1994 N.am      1 <0>        -0.5198
     15 N2         -2.5563   -1.7333    6.4415 N.am      1 <0>        -0.5127
     16 C12        -3.0261   -1.8928    7.6946 C.2       1 <0>         0.5590
     17 O3         -2.2531   -2.0753    8.6148 O.2       1 <0>        -0.4932
     18 C13        -4.4815   -1.8458    7.9501 C.ar      1 <0>        -0.0635
     19 C14        -5.2302   -0.7418    7.5385 C.ar      1 <0>        -0.0862
     20 C15        -6.5878   -0.7044    7.7795 C.ar      1 <0>        -0.0691
     21 C16        -7.2078   -1.7581    8.4278 C.ar      1 <0>        -0.0933
     22 C17        -6.4717   -2.8551    8.8383 C.ar      1 <0>        -0.0553
     23 C18        -5.1139   -2.9074    8.5987 C.ar      1 <0>        -0.0083
     24 N3         -4.3288   -4.0847    9.0331 N.pl3     1 <0>         0.0252
     25 O4         -4.8510   -4.9464    9.7013 O.2       1 <0>        -0.1557
     26 O5         -3.1654   -4.1846    8.7197 O.3       1 <0>        -0.1244
     27 H1          2.1493    3.9446    2.6617 H         1 <0>         0.0716
     28 H2          0.7735    4.1867    1.5586 H         1 <0>         0.0684
     29 H3          0.4869    3.6831    3.2416 H         1 <0>         0.0657
     30 H4          1.5987    2.6136   -0.0875 H         1 <0>         0.1353
     31 H5          1.7357    0.2695   -0.8019 H         1 <0>         0.1334
     32 H6          0.9034    1.4114    3.9350 H         1 <0>         0.1225
     33 H7          1.1743   -3.4768    2.4804 H         1 <0>         0.2083
     34 H8          1.1677   -2.6362    4.9923 H         1 <0>         0.1158
     35 H9          1.2705   -0.8787    5.2545 H         1 <0>         0.1131
     36 H10        -0.5603   -1.9235    6.9337 H         1 <0>         0.4355
     37 H11        -3.1732   -1.5876    5.7072 H         1 <0>         0.4325
     38 H12        -4.7474    0.0814    7.0327 H         1 <0>         0.1544
     39 H13        -7.1681    0.1492    7.4619 H         1 <0>         0.1539
     40 H14        -8.2710   -1.7238    8.6144 H         1 <0>         0.1561
     41 H15        -6.9615   -3.6740    9.3441 H         1 <0>         0.1630
@<TRIPOS>BOND
     1    1    2 1
     2    1   27 1
     3    1   28 1
     4    1   29 1
     5    2    7 ar
     6    2    3 ar
     7    3    4 ar
     8    3   30 1
     9    4    5 ar
    10    4   31 1
    11    5   10 1
    12    5    6 ar
    13    6    7 ar
    14    6    8 1
    15    7   32 1
    16    8    9 2
    17    8   11 1
    18    9   10 1
    19    9   33 1
    20   11   12 1
    21   11   34 1
    22   11   35 1
    23   12   13 2
    24   12   14 am
    25   14   15 1
    26   14   36 1
    27   15   16 am
    28   15   37 1
    29   16   17 2
    30   16   18 1
    31   18   23 ar
    32   18   19 ar
    33   19   20 ar
    34   19   38 1
    35   20   21 ar
    36   20   39 1
    37   21   22 ar
    38   21   40 1
    39   22   23 ar
    40   22   41 1
    41   23   24 1
    42   24   25 2
    43   24   26 1
@<TRIPOS>MOLECULE
ZINC27809009
   50    51     0     0     0
SMALL
USER_CHARGES

@<TRIPOS>ATOM
      1 C1         -0.0187    1.5258    0.0104 C.3       1 <0>        -0.1479
      2 C2          0.0021   -0.0041    0.0020 C.3       1 <0>        -0.1224
      3 H1          0.5123   -0.3556   -0.8948 H         1 <0>         0.1320
      4 C3         -1.4117   -0.5257    0.0127 C.2       1 <0>         0.5450
      5 O1         -1.9388   -0.8270    1.0621 O.2       1 <0>        -0.4460
      6 N1         -2.0902   -0.6573   -1.1443 N.am      1 <0>        -0.6843
      7 C4         -3.3547   -1.1238   -1.1348 C.2       1 <0>         0.6954
      8 O2         -3.8830   -1.4258   -0.0827 O.2       1 <0>        -0.5236
      9 N2         -4.0332   -1.2553   -2.2918 N.am      1 <0>        -0.7320
     10 C5         -5.4076   -1.7624   -2.2814 C.3       1 <0>         0.1603
     11 C6         -6.3753   -0.6075   -2.0155 C.3       1 <0>        -0.1309
     12 C7         -7.8107   -1.1371   -2.0046 C.3       1 <0>        -0.1179
     13 C8         -8.1313   -1.7692   -3.3605 C.3       1 <0>        -0.1232
     14 C9         -7.1636   -2.9241   -3.6265 C.3       1 <0>        -0.1165
     15 C10        -5.7282   -2.3945   -3.6373 C.3       1 <0>        -0.1261
     16 S1          0.8794   -0.6050    1.4716 S.3       1 <0>         0.1092
     17 C11         2.5331   -0.0421    1.2407 C.2       1 <0>         0.2024
     18 N3          2.9855    0.6579    0.2231 N.2       1 <0>        -0.3368
     19 N4          4.2380    0.9022    0.3666 N.2       1 <0>        -0.0345
     20 N5          4.6721    0.3866    1.4654 N.2       1 <0>        -0.0727
     21 N6          3.5761   -0.2437    2.0802 N.pl3     1 <0>        -0.3458
     22 C12         3.5654   -0.9660    3.3547 C.3       1 <0>         0.1662
     23 C13         3.1354   -2.4149    3.1161 C.3       1 <0>        -0.1682
     24 C14         4.9682   -0.9443    3.9650 C.3       1 <0>        -0.1479
     25 C15         2.5814   -0.2934    4.3139 C.3       1 <0>        -0.1687
     26 H2          1.0039    1.9031    0.0027 H         1 <0>         0.0914
     27 H3         -0.5459    1.8868   -0.8726 H         1 <0>         0.0782
     28 H4         -0.5289    1.8773    0.9072 H         1 <0>         0.0773
     29 H5         -1.6686   -0.4162   -1.9840 H         1 <0>         0.4131
     30 H6         -3.6115   -1.0143   -3.1315 H         1 <0>         0.3989
     31 H7         -5.5123   -2.5121   -1.4972 H         1 <0>         0.0920
     32 H8         -6.1468   -0.1572   -1.0495 H         1 <0>         0.0685
     33 H9         -6.2705    0.1422   -2.7997 H         1 <0>         0.0644
     34 H10        -7.9154   -1.8868   -1.2204 H         1 <0>         0.0658
     35 H11        -8.5001   -0.3144   -1.8152 H         1 <0>         0.0665
     36 H12        -9.1539   -2.1465   -3.3528 H         1 <0>         0.0654
     37 H13        -8.0266   -1.0195   -4.1448 H         1 <0>         0.0631
     38 H14        -7.2684   -3.6738   -2.8422 H         1 <0>         0.0666
     39 H15        -7.3921   -3.3744   -4.5925 H         1 <0>         0.0692
     40 H16        -5.6235   -1.6448   -4.4216 H         1 <0>         0.0695
     41 H17        -5.0388   -3.2173   -3.8268 H         1 <0>         0.0701
     42 H18         3.8365   -2.8941    2.4327 H         1 <0>         0.0711
     43 H19         3.1275   -2.9523    4.0644 H         1 <0>         0.0948
     44 H20         2.1360   -2.4304    2.6813 H         1 <0>         0.0749
     45 H21         5.2745    0.0879    4.1350 H         1 <0>         0.0731
     46 H22         4.9603   -1.4817    4.9133 H         1 <0>         0.0859
     47 H23         5.6692   -1.4235    3.2816 H         1 <0>         0.0730
     48 H24         1.5820   -0.3089    3.8791 H         1 <0>         0.0765
     49 H25         2.5734   -0.8309    5.2622 H         1 <0>         0.0946
     50 H26         2.8877    0.7388    4.4839 H         1 <0>         0.0714
@<TRIPOS>BOND
     1    1    2 1
     2    1   26 1
     3    1   27 1
     4    1   28 1
     5    2    3 1
     6    2    4 1
     7    2   16 1
     8    4    5 2
     9    4    6 am
    10    6    7 am
    11    6   29 1
    12    7    8 2
    13    7    9 am
    14    9   10 1
    15    9   30 1
    16   10   15 1
    17   10   11 1
    18   10   31 1
    19   11   12 1
    20   11   32 1
    21   11   33 1
    22   12   13 1
    23   12   34 1
    24   12   35 1
    25   13   14 1
    26   13   36 1
    27   13   37 1
    28   14   15 1
    29   14   38 1
    30   14   39 1
    31   15   40 1
    32   15   41 1
    33   16   17 1
    34   17   21 1
    35   17   18 2
    36   18   19 1
    37   19   20 2
    38   20   21 1
    39   21   22 1
    40   22   23 1
    41   22   24 1
    42   22   25 1
    43   23   42 1
    44   23   43 1
    45   23   44 1
    46   24   45 1
    47   24   46 1
    48   24   47 1
    49   25   48 1
    50   25   49 1
    51   25   50 1
@<TRIPOS>MOLECULE
ZINC66589073
   39    40     0     0     0
SMALL
USER_CHARGES

@<TRIPOS>ATOM
      1 C1          0.0969    1.3090   -0.6187 C.3       1 <0>        -0.1189
      2 C2          0.2031   -0.1889   -0.4919 C.ar      1 <0>        -0.0881
      3 C3          0.4339   -0.9623   -1.6160 C.ar      1 <0>        -0.0883
      4 C4          0.5332   -2.3379   -1.5082 C.ar      1 <0>        -0.1194
      5 C5          0.4020   -2.9477   -0.2775 C.ar      1 <0>        -0.0948
      6 C6          0.1692   -2.1736    0.8601 C.ar      1 <0>        -0.1279
      7 C7          0.0757   -0.7855    0.7452 C.ar      1 <0>        -0.0543
      8 C8          0.0271   -2.8205    2.1819 C.2       1 <0>         0.5681
      9 O1         -0.0811   -2.1397    3.1831 O.2       1 <0>        -0.5069
     10 N1          0.0177   -4.1648    2.2768 N.am      1 <0>        -0.5118
     11 N2         -0.2217   -4.7781    3.5135 N.pl3     1 <0>        -0.9022
     12 S1         -1.4613   -5.8645    3.6727 S.o2      1 <0>         2.7018
     13 O2         -1.2891   -6.4952    4.9344 O.2       1 <0>        -0.9213
     14 O3         -2.6533   -5.1749    3.3222 O.2       1 <0>        -0.9287
     15 C9         -1.2224   -7.1106    2.4500 C.ar      1 <0>        -0.6977
     16 C10        -2.1419   -7.2623    1.4287 C.ar      1 <0>         0.0349
     17 C11        -1.9544   -8.2396    0.4696 C.ar      1 <0>        -0.1404
     18 C12        -0.8472   -9.0653    0.5313 C.ar      1 <0>         0.0070
     19 C13         0.0724   -8.9131    1.5517 C.ar      1 <0>        -0.0749
     20 C14        -0.1128   -7.9326    2.5087 C.ar      1 <0>         0.0900
     21 C15         0.8926   -7.7632    3.6184 C.3       1 <0>        -0.1626
     22 N3          1.2575   -9.7975    1.6180 N.pl3     1 <0>         0.0354
     23 O4          1.4824  -10.5751    0.7201 O.2       1 <0>        -0.1524
     24 O5          2.0006   -9.7421    2.5701 O.3       1 <0>        -0.1470
     25 H1          1.0852    1.7543   -0.5043 H         1 <0>         0.0758
     26 H2         -0.3047    1.5630   -1.5997 H         1 <0>         0.0712
     27 H3         -0.5666    1.6931    0.1561 H         1 <0>         0.0717
     28 H4          0.5366   -0.4899   -2.5818 H         1 <0>         0.1312
     29 H5          0.7134   -2.9358   -2.3894 H         1 <0>         0.1327
     30 H6          0.4790   -4.0218   -0.1948 H         1 <0>         0.1222
     31 H7         -0.1000   -0.1805    1.6223 H         1 <0>         0.1401
     32 H8          0.1767   -4.7078    1.4889 H         1 <0>         0.4183
     33 H9          0.3387   -4.5664    4.2764 H         1 <0>         0.4339
     34 H10        -3.0068   -6.6172    1.3806 H         1 <0>         0.1666
     35 H11        -2.6731   -8.3586   -0.3277 H         1 <0>         0.1624
     36 H12        -0.7011   -9.8295   -0.2178 H         1 <0>         0.1651
     37 H13         0.6764   -8.4738    4.4162 H         1 <0>         0.1199
     38 H14         1.8951   -7.9455    3.2314 H         1 <0>         0.1183
     39 H15         0.8335   -6.7478    4.0104 H         1 <0>         0.0711
@<TRIPOS>BOND
     1    1    2 1
     2    1   25 1
     3    1   26 1
     4    1   27 1
     5    2    7 ar
     6    2    3 ar
     7    3    4 ar
     8    3   28 1
     9    4    5 ar
    10    4   29 1
    11    5    6 ar
    12    5   30 1
    13    6    7 ar
    14    6    8 1
    15    7   31 1
    16    8    9 2
    17    8   10 am
    18   10   11 1
    19   10   32 1
    20   11   12 1
    21   11   33 1
    22   12   13 2
    23   12   14 2
    24   12   15 1
    25   15   20 ar
    26   15   16 ar
    27   16   17 ar
    28   16   34 1
    29   17   18 ar
    30   17   35 1
    31   18   19 ar
    32   18   36 1
    33   19   20 ar
    34   19   22 1
    35   20   21 1
    36   21   37 1
    37   21   38 1
    38   21   39 1
    39   22   23 2
    40   22   24 1
@<TRIPOS>MOLECULE
ZINC11071423
   56    58     0     0     0
SMALL
USER_CHARGES
2-[methyl-[(5-methyl-3-oxo-2,6-diazabicyclo[5.4.0]undeca-8,10,12-trien-6-yl)carbonylmethyl]amino]-N-phenyl-propanamide
@<TRIPOS>ATOM
      1 C1         -0.0186    6.0491    1.7943 C.3       1 <0>        -0.1643
      2 C2          1.1739    5.8236    0.8626 C.3       1 <0>         0.1464
      3 H1          1.4250    6.7591    0.3627 H         1 <0>         0.1179
      4 C3          2.3747    5.3464    1.6805 C.3       1 <0>        -0.1547
      5 C4          3.4144    4.7453    0.7720 C.2       1 <0>         0.5259
      6 O1          4.4190    5.3717    0.5082 O.2       1 <0>        -0.5078
      7 N1          3.2348    3.5133    0.2486 N.am      1 <0>        -0.6798
      8 C5          2.0392    2.8183    0.4634 C.ar      1 <0>         0.1499
      9 C6          2.0502    1.4988    0.8845 C.ar      1 <0>        -0.1191
     10 C7          0.8567    0.8230    1.0611 C.ar      1 <0>        -0.0773
     11 C8         -0.3469    1.4578    0.8137 C.ar      1 <0>        -0.1103
     12 C9         -0.3666    2.7766    0.3982 C.ar      1 <0>        -0.0958
     13 C10         0.8241    3.4644    0.2316 C.ar      1 <0>         0.0706
     14 N2          0.8227    4.8154   -0.1396 N.am      1 <0>        -0.5388
     15 C11         0.5030    5.1806   -1.3969 C.2       1 <0>         0.5200
     16 O2          0.5046    6.3533   -1.7067 O.2       1 <0>        -0.5171
     17 C12         0.1436    4.1320   -2.4178 C.3       1 <0>        -0.0339
     18 C13         1.0339    5.4221   -4.2633 C.3       1 <0>        -0.0534
     19 C14        -0.7426    3.8229   -4.6498 C.3       1 <0>         0.0093
     20 H2         -0.7568    4.2631   -5.6469 H         1 <0>         0.1697
     21 C15         0.1016    2.5470   -4.6676 C.3       1 <0>        -0.1794
     22 C16        -2.1502    3.4881   -4.2283 C.2       1 <0>         0.5023
     23 O3         -2.5455    3.8071   -3.1269 O.2       1 <0>        -0.5097
     24 N3         -2.9697    2.8343   -5.0753 N.am      1 <0>        -0.6401
     25 C17        -4.2452    2.4437   -4.6528 C.ar      1 <0>         0.1142
     26 C18        -4.7942    1.2519   -5.1075 C.ar      1 <0>        -0.1298
     27 C19        -6.0506    0.8659   -4.6834 C.ar      1 <0>        -0.0987
     28 C20        -6.7671    1.6710   -3.8170 C.ar      1 <0>        -0.1144
     29 C21        -6.2259    2.8614   -3.3673 C.ar      1 <0>        -0.1017
     30 C22        -4.9672    3.2498   -3.7825 C.ar      1 <0>        -0.1132
     31 H3          0.2386    6.8038    2.5374 H         1 <0>         0.0849
     32 H4         -0.8751    6.3893    1.2123 H         1 <0>         0.0690
     33 H5         -0.2688    5.1148    2.2968 H         1 <0>         0.0677
     34 H6          2.0466    4.5964    2.4002 H         1 <0>         0.1027
     35 H7          2.8065    6.1937    2.2130 H         1 <0>         0.1269
     36 H8          3.9394    3.1073   -0.2802 H         1 <0>         0.4143
     37 H9          2.9885    0.9991    1.0747 H         1 <0>         0.1424
     38 H10         0.8646   -0.2047    1.3932 H         1 <0>         0.1418
     39 H11        -1.2750    0.9216    0.9460 H         1 <0>         0.1400
     40 H12        -1.3078    3.2677    0.1999 H         1 <0>         0.1368
     41 H13         0.9827    3.4484   -2.5474 H         1 <0>         0.1589
     42 H14        -0.7288    3.5755   -2.0754 H         1 <0>         0.1712
     43 H15         1.8418    4.6931   -4.3256 H         1 <0>         0.1236
     44 H16         0.8077    5.8000   -5.2603 H         1 <0>         0.1295
     45 H17         1.3392    6.2489   -3.6220 H         1 <0>         0.1426
     46 H18        -0.3294    1.8360   -5.3725 H         1 <0>         0.1144
     47 H19         1.1197    2.7891   -4.9725 H         1 <0>         0.1008
     48 H20         0.1158    2.1068   -3.6706 H         1 <0>         0.0894
     49 H21        -2.6754    2.6346   -5.9777 H         1 <0>         0.4197
     50 H22        -4.2372    0.6251   -5.7882 H         1 <0>         0.1296
     51 H23        -6.4761   -0.0632   -5.0328 H         1 <0>         0.1343
     52 H24        -7.7515    1.3694   -3.4906 H         1 <0>         0.1314
     53 H25        -6.7878    3.4879   -2.6905 H         1 <0>         0.1316
     54 H26        -4.5447    4.1793   -3.4303 H         1 <0>         0.1359
     55 N4         -0.1813    4.8016   -3.6949 N.4       1 <0>        -0.3685
     56 H27        -0.8790    5.5341   -3.5193 H         1 <0>         0.4419
@<TRIPOS>BOND
     1    1    2 1
     2    1   31 1
     3    1   32 1
     4    1   33 1
     5    2    3 1
     6    2   14 1
     7    2    4 1
     8    4    5 1
     9    4   34 1
    10    4   35 1
    11    5    6 2
    12    5    7 am
    13    7    8 1
    14    7   36 1
    15    8   13 ar
    16    8    9 ar
    17    9   10 ar
    18    9   37 1
    19   10   11 ar
    20   10   38 1
    21   11   12 ar
    22   11   39 1
    23   12   13 ar
    24   12   40 1
    25   13   14 1
    26   14   15 am
    27   15   16 2
    28   15   17 1
    29   17   41 1
    30   17   42 1
    31   17   55 1
    32   18   43 1
    33   18   44 1
    34   18   45 1
    35   18   55 1
    36   19   20 1
    37   19   21 1
    38   19   22 1
    39   19   55 1
    40   21   46 1
    41   21   47 1
    42   21   48 1
    43   22   23 2
    44   22   24 am
    45   24   25 1
    46   24   49 1
    47   25   30 ar
    48   25   26 ar
    49   26   27 ar
    50   26   50 1
    51   27   28 ar
    52   27   51 1
    53   28   29 ar
    54   28   52 1
    55   29   30 ar
    56   29   53 1
    57   30   54 1
    58   55   56 1
@<TRIPOS>MOLECULE
ZINC20536960
   55    58     0     0     0
SMALL
USER_CHARGES
2-[(2R)-1-cinnamyl-3-oxo-piperazin-2-yl]-N-(2,3-dihydroimidazo[2,1-b]thiazol-6-ylmethyl)acetamide
@<TRIPOS>ATOM
      1 C1          5.5310    4.5903   -1.0767 C.ar      1 <0>        -0.0958
      2 C2          4.6171    4.9487   -2.0515 C.ar      1 <0>        -0.1198
      3 C3          3.3436    4.4181   -2.0358 C.ar      1 <0>        -0.0910
      4 C4          2.9784    3.5178   -1.0342 C.ar      1 <0>        -0.0968
      5 C5          3.9032    3.1646   -0.0509 C.ar      1 <0>        -0.0997
      6 C6          5.1754    3.6979   -0.0812 C.ar      1 <0>        -0.1206
      7 C7          1.6158    2.9455   -1.0115 C.2       1 <0>        -0.0222
      8 C8          1.2718    2.0905   -0.0586 C.2       1 <0>        -0.2460
      9 C9         -0.1174    1.5070   -0.0354 C.3       1 <0>         0.0330
     10 N1         -0.0324    0.0405   -0.0229 N.4       1 <0>        -0.4071
     11 C10         0.3894   -0.4746   -1.3356 C.3       1 <0>        -0.0170
     12 C11         0.7593   -1.9518   -1.1876 C.3       1 <0>         0.0914
     13 N2         -0.3103   -2.6689   -0.4995 N.am      1 <0>        -0.7245
     14 C12        -1.2505   -2.0522    0.2241 C.2       1 <0>         0.5195
     15 O1         -2.0852   -2.7272    0.7886 O.2       1 <0>        -0.5062
     16 C13        -1.3160   -0.5579    0.3676 C.3       1 <0>         0.0423
     17 H1         -2.0851   -0.1613   -0.3115 H         1 <0>         0.1663
     18 C14        -1.6210   -0.2004    1.8236 C.3       1 <0>        -0.1654
     19 C15        -0.5006   -0.6877    2.7058 C.2       1 <0>         0.5174
     20 O2          0.4924   -1.1771    2.2103 O.2       1 <0>        -0.5606
     21 N3         -0.6020   -0.5797    4.0454 N.am      1 <0>        -0.7036
     22 C16         0.4872   -1.0534    4.9030 C.3       1 <0>         0.2091
     23 C17         0.1274   -0.8191    6.3476 C.2       1 <0>        -0.0165
     24 C18        -0.4372   -1.7128    7.1698 C.2       1 <0>         0.0071
     25 N4         -0.6020   -1.0973    8.4131 N.pl3     1 <0>        -0.4940
     26 C19        -0.1133    0.1592    8.2543 C.2       1 <0>         0.2181
     27 N5          0.3233    0.3193    7.0316 N.2       1 <0>        -0.4394
     28 S1         -0.3024    0.9862    9.8162 S.3       1 <0>        -0.0215
     29 C20        -1.0720   -0.3704   10.7767 C.3       1 <0>        -0.1099
     30 C21        -1.1365   -1.4821    9.7173 C.3       1 <0>         0.0881
     31 H2          6.5266    5.0087   -1.0931 H         1 <0>         0.1301
     32 H3          4.9010    5.6456   -2.8262 H         1 <0>         0.1311
     33 H4          2.6311    4.6986   -2.7974 H         1 <0>         0.1286
     34 H5          3.6253    2.4717    0.7295 H         1 <0>         0.1241
     35 H6          5.8935    3.4219    0.6768 H         1 <0>         0.1296
     36 H7          0.8872    3.2290   -1.7853 H         1 <0>         0.1336
     37 H8          2.0004    1.8070    0.7152 H         1 <0>         0.1395
     38 H9         -0.6447    1.8514    0.8664 H         1 <0>         0.1337
     39 H10        -0.6678    1.8348   -0.9296 H         1 <0>         0.1296
     40 H11        -0.4362   -0.3665   -2.0544 H         1 <0>         0.1317
     41 H12         1.2611    0.0950   -1.6902 H         1 <0>         0.1503
     42 H13         0.9084   -2.3940   -2.1837 H         1 <0>         0.1234
     43 H14         1.6876   -2.0407   -0.6043 H         1 <0>         0.0974
     44 H15        -0.3672   -3.7656   -0.5637 H         1 <0>         0.4520
     45 H16        -1.7161    0.8912    1.9209 H         1 <0>         0.1337
     46 H17        -2.5630   -0.6792    2.1291 H         1 <0>         0.1545
     47 H18        -1.5026   -0.1359    4.4948 H         1 <0>         0.4385
     48 H19         0.6455   -2.1288    4.7343 H         1 <0>         0.0924
     49 H20         1.4094   -0.5047    4.6612 H         1 <0>         0.0926
     50 H21        -0.7145   -2.7257    6.9176 H         1 <0>         0.1808
     51 H22        -0.4322   -0.6200   11.6360 H         1 <0>         0.1333
     52 H23        -2.0607   -0.0497   11.1367 H         1 <0>         0.1334
     53 H24        -2.1939   -1.7659    9.6109 H         1 <0>         0.1103
     54 H25        -0.5654   -2.3362   10.1102 H         1 <0>         0.1105
     55 H26         0.7242   -0.2416    0.7241 H         1 <0>         0.4504
@<TRIPOS>BOND
     1    1    6 ar
     2    1    2 ar
     3    1   31 1
     4    2    3 ar
     5    2   32 1
     6    3    4 ar
     7    3   33 1
     8    4    5 ar
     9    4    7 1
    10    5    6 ar
    11    5   34 1
    12    6   35 1
    13    7    8 2
    14    7   36 1
    15    8    9 1
    16    8   37 1
    17    9   10 1
    18    9   38 1
    19    9   39 1
    20   10   16 1
    21   10   11 1
    22   10   55 1
    23   11   12 1
    24   11   40 1
    25   11   41 1
    26   12   13 1
    27   12   42 1
    28   12   43 1
    29   13   14 am
    30   13   44 1
    31   14   15 2
    32   14   16 1
    33   16   17 1
    34   16   18 1
    35   18   19 1
    36   18   45 1
    37   18   46 1
    38   19   20 2
    39   19   21 am
    40   21   22 1
    41   21   47 1
    42   22   23 1
    43   22   48 1
    44   22   49 1
    45   23   27 1
    46   23   24 2
    47   24   25 1
    48   24   50 1
    49   25   30 1
    50   25   26 1
    51   26   27 2
    52   26   28 1
    53   28   29 1
    54   29   30 1
    55   29   51 1
    56   29   52 1
    57   30   53 1
    58   30   54 1
@<TRIPOS>MOLECULE
ZINC46583695
   53    54     0     0     0
SMALL
USER_CHARGES

@<TRIPOS>ATOM
      1 C1          0.3392    1.5285   -0.1485 C.3       1 <0>        -0.1530
      2 C2          0.2427    0.0022   -0.1042 C.3       1 <0>        -0.1434
      3 C3          0.9583   -0.5180    1.1441 C.3       1 <0>         0.0893
      4 N1          0.8659   -1.9794    1.1866 N.am      1 <0>        -0.5368
      5 C4         -0.1946   -2.5648    1.8175 C.2       1 <0>         0.5830
      6 C5         -0.2748   -3.9678    1.8526 C.2       1 <0>        -0.4656
      7 C6          0.7968   -4.7330    1.2025 C.2       1 <0>         0.5875
      8 O1          0.7786   -5.9501    1.2017 O.2       1 <0>        -0.5184
      9 N2          1.8016   -4.0590    0.6059 N.am      1 <0>        -0.5551
     10 C7          1.8221   -2.7162    0.6000 C.2       1 <0>         0.7077
     11 O2          2.7431   -2.1473    0.0474 O.2       1 <0>        -0.4982
     12 C8          2.8815   -4.8014   -0.0489 C.3       1 <0>         0.0755
     13 C9         -1.3504   -4.6199    2.4925 C.2       1 <0>         0.4352
     14 O3         -2.2791   -3.9718    2.9314 O.2       1 <0>        -0.5128
     15 C10        -1.3467   -6.1205    2.6312 C.3       1 <0>        -0.0406
     16 N3         -2.5663   -6.5510    3.3277 N.4       1 <0>        -0.3766
     17 C11        -2.5535   -6.0336    4.7025 C.3       1 <0>        -0.0658
     18 C12        -2.6212   -8.0186    3.3573 C.3       1 <0>         0.0742
     19 H1         -1.7475   -8.4044    3.8826 H         1 <0>         0.1506
     20 C13        -2.6346   -8.5575    1.9254 C.3       1 <0>        -0.1830
     21 C14        -3.8724   -8.4602    4.0719 C.ar      1 <0>        -0.1209
     22 C15        -4.9747   -7.6270    4.1141 C.ar      1 <0>        -0.1053
     23 C16        -6.1225   -8.0312    4.7692 C.ar      1 <0>        -0.0880
     24 C17        -6.1691   -9.2706    5.3830 C.ar      1 <0>        -0.0079
     25 C18        -5.0667  -10.1048    5.3408 C.ar      1 <0>        -0.0873
     26 C19        -3.9196   -9.7016    4.6806 C.ar      1 <0>        -0.0033
     27 Cl1        -2.5376  -10.7504    4.6219 Cl        1 <0>        -0.0291
     28 Cl2        -7.6107   -9.7780    6.2064 Cl        1 <0>        -0.0257
     29 N4         -1.1576   -1.8024    2.4029 N.pl3     1 <0>        -0.7810
     30 H2          1.3875    1.8255   -0.1804 H         1 <0>         0.0663
     31 H3         -0.1706    1.8991   -1.0378 H         1 <0>         0.0702
     32 H4         -0.1304    1.9483    0.7410 H         1 <0>         0.0608
     33 H5         -0.8056   -0.2948   -0.0723 H         1 <0>         0.0680
     34 H6          0.7124   -0.4176   -0.9937 H         1 <0>         0.0807
     35 H7          2.0066   -0.2210    1.1122 H         1 <0>         0.1241
     36 H8          0.4886   -0.0982    2.0337 H         1 <0>         0.0979
     37 H9          2.6991   -5.8715    0.0506 H         1 <0>         0.1086
     38 H10         2.9166   -4.5356   -1.1054 H         1 <0>         0.0852
     39 H11         3.8323   -4.5497    0.4208 H         1 <0>         0.0854
     40 H12        -1.3131   -6.5768    1.6418 H         1 <0>         0.1729
     41 H13        -0.4726   -6.4303    3.2040 H         1 <0>         0.1653
     42 H14        -3.4585   -6.3530    5.2194 H         1 <0>         0.1247
     43 H15        -1.6797   -6.4193    5.2278 H         1 <0>         0.1217
     44 H16        -2.5127   -4.9446    4.6806 H         1 <0>         0.1409
     45 H17        -2.6753   -9.6465    1.9474 H         1 <0>         0.1097
     46 H18        -3.5083   -8.1717    1.4002 H         1 <0>         0.0857
     47 H19        -1.7296   -8.2381    1.4086 H         1 <0>         0.0957
     48 H20        -4.9388   -6.6596    3.6352 H         1 <0>         0.1378
     49 H21        -6.9831   -7.3796    4.8025 H         1 <0>         0.1543
     50 H22        -5.1026  -11.0722    5.8197 H         1 <0>         0.1589
     51 H23        -1.0552   -0.8387    2.4434 H         1 <0>         0.4151
     52 H24        -1.9465   -2.2226    2.7797 H         1 <0>         0.4416
     53 H25        -3.3751   -6.1939    2.8415 H         1 <0>         0.4231
@<TRIPOS>BOND
     1    1    2 1
     2    1   30 1
     3    1   31 1
     4    1   32 1
     5    2    3 1
     6    2   33 1
     7    2   34 1
     8    3    4 1
     9    3   35 1
    10    3   36 1
    11    4   10 am
    12    4    5 1
    13    5    6 2
    14    5   29 1
    15    6    7 1
    16    6   13 1
    17    7    8 2
    18    7    9 am
    19    9   10 am
    20    9   12 1
    21   10   11 2
    22   12   37 1
    23   12   38 1
    24   12   39 1
    25   13   14 2
    26   13   15 1
    27   15   16 1
    28   15   40 1
    29   15   41 1
    30   16   17 1
    31   16   18 1
    32   16   53 1
    33   17   42 1
    34   17   43 1
    35   17   44 1
    36   18   19 1
    37   18   20 1
    38   18   21 1
    39   20   45 1
    40   20   46 1
    41   20   47 1
    42   21   26 ar
    43   21   22 ar
    44   22   23 ar
    45   22   48 1
    46   23   24 ar
    47   23   49 1
    48   24   25 ar
    49   24   28 1
    50   25   26 ar
    51   25   50 1
    52   26   27 1
    53   29   51 1
    54   29   52 1
@<TRIPOS>MOLECULE
ZINC63315026
   52    55     0     0     0
SMALL
USER_CHARGES

@<TRIPOS>ATOM
      1 C1         -0.0138    1.5022    0.0512 C.3       1 <0>        -0.0629
      2 C2          0.0061   -0.0046    0.0376 C.2       1 <0>        -0.2032
      3 C3         -1.0266   -0.8830    0.0373 C.2       1 <0>         0.0518
      4 N1         -0.7216   -2.1674    0.0237 N.2       1 <0>        -0.5160
      5 C4          0.5310   -2.5687    0.0110 C.2       1 <0>         0.2571
      6 S1          1.3960   -1.1249    0.0097 S.3       1 <0>         0.1122
      7 N2          1.0213   -3.8693   -0.0034 N.am      1 <0>        -0.6234
      8 C5          0.1668   -4.9116   -0.0062 C.2       1 <0>         0.5080
      9 O1         -1.0299   -4.7147    0.0038 O.2       1 <0>        -0.4714
     10 C6          0.6983   -6.3217   -0.0219 C.3       1 <0>        -0.1324
     11 C7         -0.4716   -7.3077   -0.0220 C.3       1 <0>        -0.1190
     12 C8          0.0680   -8.7393   -0.0380 C.3       1 <0>         0.1327
     13 N3         -1.0522   -9.6834   -0.0381 N.am      1 <0>        -0.7362
     14 C9         -0.8153  -11.0101   -0.0510 C.2       1 <0>         0.7094
     15 O2          0.3235  -11.4234   -0.1542 O.2       1 <0>        -0.5697
     16 N4         -1.8408  -11.8788    0.0505 N.am      1 <0>        -0.6334
     17 C10        -3.2188  -11.3773    0.0519 C.3       1 <0>         0.1069
     18 C11        -4.0023  -12.0280   -1.1028 C.3       1 <0>        -0.1026
     19 C12        -3.6758  -13.5005   -1.0713 C.2       1 <0>         0.0603
     20 C13        -4.4577  -14.5730   -1.0560 C.ar      1 <0>        -0.1634
     21 C14        -5.9170  -14.7232   -1.1741 C.ar      1 <0>         0.0002
     22 C15        -6.3973  -15.9924   -1.0958 C.ar      1 <0>        -0.1593
     23 C16        -5.5818  -17.1136   -0.9139 C.ar      1 <0>         0.0551
     24 C17        -4.2301  -17.0692   -0.8036 C.ar      1 <0>        -0.2082
     25 C18        -3.6073  -15.7895   -0.8794 C.ar      1 <0>         0.3338
     26 N5         -2.3500  -15.4615   -0.8289 N.pl3     1 <0>        -0.5738
     27 C19        -2.2419  -14.0158   -1.0277 C.3       1 <0>         0.0714
     28 H1         -1.7265  -13.7957   -1.9626 H         1 <0>         0.1768
     29 C20        -1.5659  -13.3208    0.1527 C.3       1 <0>         0.1373
     30 H2          1.0089    1.8792    0.0417 H         1 <0>         0.0749
     31 H3         -0.5435    1.8665   -0.8290 H         1 <0>         0.0840
     32 H4         -0.5212    1.8508    0.9508 H         1 <0>         0.0842
     33 H5         -2.0529   -0.5471    0.0481 H         1 <0>         0.1757
     34 H6          1.9784   -4.0268   -0.0115 H         1 <0>         0.4270
     35 H7          1.3010   -6.4729   -0.9175 H         1 <0>         0.1063
     36 H8          1.3135   -6.4879    0.8624 H         1 <0>         0.1064
     37 H9         -1.0743   -7.1565    0.8735 H         1 <0>         0.0820
     38 H10        -1.0868   -7.1414   -0.9063 H         1 <0>         0.0817
     39 H11         0.6707   -8.8905   -0.9335 H         1 <0>         0.0758
     40 H12         0.6832   -8.9055    0.8464 H         1 <0>         0.0748
     41 H13        -1.9644   -9.3537   -0.0289 H         1 <0>         0.3997
     42 H14        -3.6953  -11.6264    1.0001 H         1 <0>         0.0933
     43 H15        -3.2119  -10.2951   -0.0781 H         1 <0>         0.1096
     44 H16        -5.0724  -11.8800   -0.9576 H         1 <0>         0.1247
     45 H17        -3.6908  -11.5971   -2.0544 H         1 <0>         0.1267
     46 H18        -6.5689  -13.8737   -1.3146 H         1 <0>         0.1696
     47 H19        -7.4637  -16.1425   -1.1780 H         1 <0>         0.1551
     48 H20        -6.0601  -18.0803   -0.8571 H         1 <0>         0.1579
     49 H21        -3.6488  -17.9686   -0.6640 H         1 <0>         0.1690
     50 H22        -0.4906  -13.4951    0.1149 H         1 <0>         0.1319
     51 H23        -1.9708  -13.7085    1.0874 H         1 <0>         0.0949
     52 H24        -1.6098  -16.0714   -0.6839 H         1 <0>         0.4567
@<TRIPOS>BOND
     1    1    2 1
     2    1   30 1
     3    1   31 1
     4    1   32 1
     5    2    6 1
     6    2    3 2
     7    3    4 1
     8    3   33 1
     9    4    5 2
    10    5    6 1
    11    5    7 1
    12    7    8 am
    13    7   34 1
    14    8    9 2
    15    8   10 1
    16   10   11 1
    17   10   35 1
    18   10   36 1
    19   11   12 1
    20   11   37 1
    21   11   38 1
    22   12   13 1
    23   12   39 1
    24   12   40 1
    25   13   14 am
    26   13   41 1
    27   14   15 2
    28   14   16 am
    29   16   29 1
    30   16   17 1
    31   17   18 1
    32   17   42 1
    33   17   43 1
    34   18   19 1
    35   18   44 1
    36   18   45 1
    37   19   27 1
    38   19   20 2
    39   20   25 ar
    40   20   21 ar
    41   21   22 ar
    42   21   46 1
    43   22   23 ar
    44   22   47 1
    45   23   24 ar
    46   23   48 1
    47   24   25 ar
    48   24   49 1
    49   25   26 2
    50   26   27 1
    51   26   52 1
    52   27   28 1
    53   27   29 1
    54   29   50 1
    55   29   51 1
@<TRIPOS>MOLECULE
ZINC20732844
   52    54     0     0     0
SMALL
USER_CHARGES

@<TRIPOS>ATOM
      1 C1          1.7638   -4.0909    2.5703 C.3       1 <0>         0.0342
      2 O1          0.9517   -2.9152    2.5537 O.3       1 <0>        -0.3484
      3 C2         -0.3780   -3.0936    2.5121 C.2       1 <0>         0.4450
      4 O2         -0.8373   -4.2109    2.4907 O.2       1 <0>        -0.4850
      5 C3         -1.2981   -1.9002    2.4923 C.3       1 <0>         0.1806
      6 H1         -1.0863   -1.2927    1.6124 H         1 <0>         0.1375
      7 C4         -1.0765   -1.0644    3.7545 C.3       1 <0>        -0.1096
      8 C5         -1.9188    0.2105    3.6763 C.3       1 <0>        -0.0873
      9 S1         -1.6561    1.2015    5.1728 S.3       1 <0>        -0.2483
     10 C6         -2.7103    2.6569    4.9261 C.3       1 <0>        -0.1218
     11 N1         -2.6893   -2.3570    2.4470 N.am      1 <0>        -0.7199
     12 C7         -3.2623   -2.6558    1.2643 C.2       1 <0>         0.7240
     13 O3         -2.6545   -2.4647    0.2288 O.2       1 <0>        -0.5515
     14 N2         -4.5091   -3.1666    1.2295 N.am      1 <0>        -0.6225
     15 C8         -5.1073   -3.6068   -0.0397 C.3       1 <0>         0.1249
     16 C9         -6.3223   -2.7246   -0.3544 C.3       1 <0>        -0.0801
     17 C10        -7.1454   -2.5676    0.8971 C.2       1 <0>         0.0926
     18 C11        -6.7019   -2.8149    2.1484 C.2       1 <0>         0.0007
     19 N3         -7.6987   -2.5637    2.9996 N.pl3     1 <0>        -0.4597
     20 C12        -8.7485   -2.1718    2.3255 C.cat     1 <0>         0.3124
     21 N4         -8.4413   -2.1629    1.0079 N.pl3     1 <0>        -0.5024
     22 H2         -9.0323   -1.9151    0.2798 H         1 <0>         0.4695
     23 C13        -5.3036   -3.3030    2.4635 C.3       1 <0>         0.2688
     24 H3         -4.8671   -2.6939    3.2550 H         1 <0>         0.1268
     25 C14        -5.3445   -4.7478    2.8900 C.ar      1 <0>        -0.1550
     26 C15        -6.4742   -5.5074    2.6495 C.ar      1 <0>        -0.0628
     27 C16        -6.5142   -6.8326    3.0397 C.ar      1 <0>        -0.1299
     28 C17        -5.4223   -7.4021    3.6724 C.ar      1 <0>         0.1238
     29 C18        -4.2889   -6.6425    3.9144 C.ar      1 <0>         0.0465
     30 C19        -4.2487   -5.3150    3.5172 C.ar      1 <0>         0.1337
     31 F1         -3.1427   -4.5739    3.7467 F         1 <0>        -0.0950
     32 F2         -3.2226   -7.1962    4.5321 F         1 <0>        -0.1017
     33 F3         -5.4620   -8.6975    4.0540 F         1 <0>        -0.1049
     34 H4          2.8153   -3.8057    2.6041 H         1 <0>         0.1077
     35 H5          1.5208   -4.6879    3.4493 H         1 <0>         0.0626
     36 H6          1.5748   -4.6758    1.6702 H         1 <0>         0.0622
     37 H7         -1.3729   -1.6425    4.6298 H         1 <0>         0.0881
     38 H8         -0.0223   -0.7991    3.8342 H         1 <0>         0.1141
     39 H9         -1.6224    0.7886    2.8011 H         1 <0>         0.0907
     40 H10        -2.9730   -0.0548    3.5966 H         1 <0>         0.0765
     41 H11        -2.6192    3.3215    5.7852 H         1 <0>         0.1070
     42 H12        -2.3973    3.1837    4.0246 H         1 <0>         0.0797
     43 H13        -3.7479    2.3403    4.8201 H         1 <0>         0.0730
     44 H14        -3.1981   -2.4443    3.2683 H         1 <0>         0.3990
     45 H15        -4.3730   -3.5149   -0.8400 H         1 <0>         0.1296
     46 H16        -5.4244   -4.6460    0.0480 H         1 <0>         0.0897
     47 H17        -5.9847   -1.7458   -0.6948 H         1 <0>         0.1190
     48 H18        -6.9246   -3.1960   -1.1311 H         1 <0>         0.1220
     49 H19        -9.7035   -1.9004    2.7505 H         1 <0>         0.2736
     50 H20        -7.3269   -5.0645    2.1563 H         1 <0>         0.1391
     51 H21        -7.3978   -7.4243    2.8512 H         1 <0>         0.1628
     52 H22        -7.6519   -2.6566    3.9640 H         1 <0>         0.4680
@<TRIPOS>BOND
     1    1    2 1
     2    1   34 1
     3    1   35 1
     4    1   36 1
     5    2    3 1
     6    3    4 2
     7    3    5 1
     8    5    6 1
     9    5    7 1
    10    5   11 1
    11    7    8 1
    12    7   37 1
    13    7   38 1
    14    8    9 1
    15    8   39 1
    16    8   40 1
    17    9   10 1
    18   10   41 1
    19   10   42 1
    20   10   43 1
    21   11   12 am
    22   11   44 1
    23   12   13 2
    24   12   14 am
    25   14   23 1
    26   14   15 1
    27   15   16 1
    28   15   45 1
    29   15   46 1
    30   16   17 1
    31   16   47 1
    32   16   48 1
    33   17   21 1
    34   17   18 2
    35   18   19 1
    36   18   23 1
    37   19   20 2
    38   19   52 1
    39   20   21 1
    40   20   49 1
    41   21   22 1
    42   23   24 1
    43   23   25 1
    44   25   30 ar
    45   25   26 ar
    46   26   27 ar
    47   26   50 1
    48   27   28 ar
    49   27   51 1
    50   28   29 ar
    51   28   33 1
    52   29   30 ar
    53   29   32 1
    54   30   31 1
@<TRIPOS>MOLECULE
ZINC12074050
   61    64     0     0     0
SMALL
USER_CHARGES
2-[(2S)-1-benzyl-3-oxo-piperazin-2-yl]-N-[2-(6-oxo-3-phenyl-pyridazin-1-yl)ethyl]acetamide
@<TRIPOS>ATOM
      1 C1          2.2602   10.8614   -5.6184 C.ar      1 <0>        -0.0826
      2 C2          2.1572   10.1385   -4.4446 C.ar      1 <0>        -0.1111
      3 C3          3.2304    9.3911   -3.9968 C.ar      1 <0>        -0.0897
      4 C4          4.4062    9.3658   -4.7233 C.ar      1 <0>        -0.1613
      5 C5          4.5108   10.0925   -5.8946 C.ar      1 <0>        -0.0972
      6 C6          3.4361   10.8364   -6.3446 C.ar      1 <0>        -0.1124
      7 C7          5.5762    8.5510   -4.2351 C.3       1 <0>         0.0411
      8 C8          5.8252    7.1871   -6.2230 C.3       1 <0>        -0.0208
      9 C9          5.4283    5.8329   -6.8138 C.3       1 <0>         0.0854
     10 N1          5.9712    4.7519   -5.9962 N.am      1 <0>        -0.7108
     11 C10         6.3896    4.9311   -4.7389 C.2       1 <0>         0.5174
     12 O1          6.7984    3.9715   -4.1202 O.2       1 <0>        -0.4960
     13 C11         6.3745    6.2718   -4.0606 C.3       1 <0>         0.0394
     14 H1          7.3860    6.6777   -4.0423 H         1 <0>         0.1773
     15 C12         5.8664    6.1097   -2.6266 C.3       1 <0>        -0.1671
     16 C13         4.4475    5.6027   -2.6507 C.2       1 <0>         0.5172
     17 O2          3.8625    5.4878   -3.7069 O.2       1 <0>        -0.5498
     18 N2          3.8285    5.2769   -1.4987 N.am      1 <0>        -0.6975
     19 C14         2.4491    4.7840   -1.5222 C.3       1 <0>         0.1018
     20 C15         1.9882    4.4901   -0.0932 C.3       1 <0>         0.1029
     21 N3          0.6088    3.9972   -0.1167 N.am      1 <0>        -0.3450
     22 C16         0.3880    2.6738   -0.2264 C.2       1 <0>         0.4775
     23 O3          1.3271    1.8983   -0.3051 O.2       1 <0>        -0.5231
     24 C17        -0.9386    2.1893   -0.2504 C.2       1 <0>        -0.1762
     25 C18        -1.9517    3.0981   -0.1656 C.2       1 <0>        -0.0623
     26 C19        -1.6149    4.4669   -0.0477 C.2       1 <0>         0.1215
     27 N4         -0.3568    4.8391   -0.0324 N.2       1 <0>        -0.2266
     28 C20        -2.6884    5.4860    0.0530 C.ar      1 <0>        -0.0423
     29 C21        -4.0264    5.0969    0.0314 C.ar      1 <0>        -0.0966
     30 C22        -5.0208    6.0488    0.1307 C.ar      1 <0>        -0.1159
     31 C23        -4.6915    7.3878    0.2400 C.ar      1 <0>        -0.1022
     32 C24        -3.3652    7.7802    0.2566 C.ar      1 <0>        -0.1215
     33 C25        -2.3625    6.8364    0.1637 C.ar      1 <0>        -0.0852
     34 H2          1.4217   11.4453   -5.9683 H         1 <0>         0.1366
     35 H3          1.2385   10.1580   -3.8773 H         1 <0>         0.1359
     36 H4          3.1501    8.8266   -3.0796 H         1 <0>         0.1259
     37 H5          5.4309   10.0762   -6.4598 H         1 <0>         0.1329
     38 H6          3.5164   11.4009   -7.2619 H         1 <0>         0.1375
     39 H7          5.5551    8.5010   -3.1464 H         1 <0>         0.1331
     40 H8          6.5055    9.0191   -4.5594 H         1 <0>         0.1418
     41 H9          5.2765    7.9816   -6.7290 H         1 <0>         0.1497
     42 H10         6.8966    7.3415   -6.3503 H         1 <0>         0.1403
     43 H11         4.3414    5.7548   -6.8411 H         1 <0>         0.0982
     44 H12         5.8205    5.7517   -7.8275 H         1 <0>         0.1268
     45 H13         6.0310    3.8640   -6.3824 H         1 <0>         0.4258
     46 H14         5.8993    7.0733   -2.1183 H         1 <0>         0.1365
     47 H15         6.4978    5.3972   -2.0957 H         1 <0>         0.1582
     48 H16         4.2964    5.3688   -0.6539 H         1 <0>         0.4151
     49 H17         2.3997    3.8707   -2.1150 H         1 <0>         0.0859
     50 H18         1.8006    5.5401   -1.9648 H         1 <0>         0.0870
     51 H19         2.0376    5.4034    0.4997 H         1 <0>         0.1110
     52 H20         2.6367    3.7340    0.3495 H         1 <0>         0.1161
     53 H21        -1.1442    1.1326   -0.3376 H         1 <0>         0.1708
     54 H22        -2.9839    2.7809   -0.1839 H         1 <0>         0.1591
     55 H23        -4.2846    4.0521   -0.0583 H         1 <0>         0.1296
     56 H24        -6.0580    5.7480    0.1186 H         1 <0>         0.1315
     57 H25        -5.4730    8.1297    0.3129 H         1 <0>         0.1281
     58 H26        -3.1138    8.8270    0.3428 H         1 <0>         0.1277
     59 H27        -1.3273    7.1438    0.1771 H         1 <0>         0.1299
     60 N5          5.4713    7.1820   -4.7894 N.4       1 <0>        -0.3971
     61 H28         4.5049    6.8518   -4.6835 H         1 <0>         0.4378
@<TRIPOS>BOND
     1    1    6 ar
     2    1    2 ar
     3    1   34 1
     4    2    3 ar
     5    2   35 1
     6    3    4 ar
     7    3   36 1
     8    4    5 ar
     9    4    7 1
    10    5    6 ar
    11    5   37 1
    12    6   38 1
    13    7   39 1
    14    7   40 1
    15    7   60 1
    16    8    9 1
    17    8   41 1
    18    8   42 1
    19    8   60 1
    20    9   10 1
    21    9   43 1
    22    9   44 1
    23   10   11 am
    24   10   45 1
    25   11   12 2
    26   11   13 1
    27   13   14 1
    28   13   15 1
    29   13   60 1
    30   15   16 1
    31   15   46 1
    32   15   47 1
    33   16   17 2
    34   16   18 am
    35   18   19 1
    36   18   48 1
    37   19   20 1
    38   19   49 1
    39   19   50 1
    40   20   21 1
    41   20   51 1
    42   20   52 1
    43   21   27 1
    44   21   22 am
    45   22   23 2
    46   22   24 1
    47   24   25 2
    48   24   53 1
    49   25   26 1
    50   25   54 1
    51   26   27 2
    52   26   28 1
    53   28   33 ar
    54   28   29 ar
    55   29   30 ar
    56   29   55 1
    57   30   31 ar
    58   30   56 1
    59   31   32 ar
    60   31   57 1
    61   32   33 ar
    62   32   58 1
    63   33   59 1
    64   60   61 1
@<TRIPOS>MOLECULE
ZINC03233405
   52    55     0     0     0
SMALL
USER_CHARGES

@<TRIPOS>ATOM
      1 C1         -2.4329   -0.6695   -0.8203 C.3       1 <0>        -0.1071
      2 C2         -1.0223   -1.0308   -0.4321 C.2       1 <0>         0.2072
      3 C3          0.0818   -0.8157   -1.1821 C.2       1 <0>        -0.1224
      4 C4          1.2267   -1.3186   -0.4221 C.2       1 <0>         0.5488
      5 O1          2.3932   -1.3005   -0.7715 O.2       1 <0>        -0.5148
      6 N1          0.7437   -1.8061    0.7395 N.am      1 <0>        -0.3607
      7 N2         -0.6443   -1.6265    0.7419 N.pl3     1 <0>        -0.3812
      8 C5         -1.5491   -2.0161    1.8263 C.3       1 <0>         0.0903
      9 C6          1.4986   -2.3853    1.7642 C.ar      1 <0>         0.1375
     10 C7          1.1002   -3.5917    2.3255 C.ar      1 <0>        -0.1262
     11 C8          1.8480   -4.1611    3.3375 C.ar      1 <0>        -0.1006
     12 C9          2.9923   -3.5314    3.7918 C.ar      1 <0>        -0.1099
     13 C10         3.3914   -2.3300    3.2354 C.ar      1 <0>        -0.0979
     14 C11         2.6515   -1.7584    2.2189 C.ar      1 <0>        -0.1009
     15 N3          0.1225   -0.2187   -2.4577 N.am      1 <0>        -0.6043
     16 C12         0.6435   -0.8937   -3.5014 C.2       1 <0>         0.4931
     17 O2          1.1582   -1.9783   -3.3263 O.2       1 <0>        -0.5027
     18 C13         0.5869   -0.3012   -4.8859 C.3       1 <0>        -0.0260
     19 N4          1.2169   -1.2240   -5.8396 N.4       1 <0>        -0.4976
     20 C14         1.1617   -0.6465   -7.1891 C.3       1 <0>         0.0547
     21 C15         1.8079   -1.5932   -8.1675 C.ar      1 <0>        -0.1643
     22 C16         3.1626   -1.4986   -8.4267 C.ar      1 <0>        -0.0736
     23 C17         3.7601   -2.3650   -9.3230 C.ar      1 <0>        -0.1018
     24 C18         3.0015   -3.3308   -9.9643 C.ar      1 <0>         0.0757
     25 C19         1.6369   -3.4262   -9.7032 C.ar      1 <0>         0.0377
     26 C20         1.0460   -2.5581   -8.7995 C.ar      1 <0>        -0.0770
     27 O3          1.1198   -4.4445  -10.4508 O.3       1 <0>        -0.3011
     28 C21         2.0979   -4.7048  -11.4749 C.3       1 <0>         0.2112
     29 O4          3.3395   -4.2895  -10.8754 O.3       1 <0>        -0.2982
     30 H1         -2.6548    0.3428   -0.4826 H         1 <0>         0.1000
     31 H2         -2.5362   -0.7217   -1.9042 H         1 <0>         0.0941
     32 H3         -3.1282   -1.3683   -0.3551 H         1 <0>         0.0884
     33 H4         -2.5590   -1.6766    1.5964 H         1 <0>         0.1101
     34 H5         -1.5454   -3.1011    1.9304 H         1 <0>         0.0812
     35 H6         -1.2160   -1.5605    2.7588 H         1 <0>         0.0854
     36 H7          0.2064   -4.0838    1.9714 H         1 <0>         0.1261
     37 H8          1.5386   -5.0989    3.7746 H         1 <0>         0.1353
     38 H9          3.5753   -3.9787    4.5833 H         1 <0>         0.1342
     39 H10         4.2852   -1.8404    3.5930 H         1 <0>         0.1367
     40 H11         2.9666   -0.8227    1.7812 H         1 <0>         0.1305
     41 H12        -0.2245    0.6782   -2.5847 H         1 <0>         0.4141
     42 H13        -0.4530   -0.1395   -5.1696 H         1 <0>         0.1644
     43 H14         1.1185    0.6504   -4.8959 H         1 <0>         0.1638
     44 H15         2.1795   -1.3737   -5.5769 H         1 <0>         0.4367
     45 H16         0.1217   -0.4848   -7.4729 H         1 <0>         0.1435
     46 H17         1.6932    0.3050   -7.1992 H         1 <0>         0.1459
     47 H18         3.7553   -0.7458   -7.9282 H         1 <0>         0.1490
     48 H19         4.8185   -2.2888   -9.5235 H         1 <0>         0.1505
     49 H20        -0.0112   -2.6327   -8.5917 H         1 <0>         0.1452
     50 H21         2.1259   -5.7672  -11.7167 H         1 <0>         0.1443
     51 H22         1.8862   -4.1136  -12.3658 H         1 <0>         0.0975
     52 H23         0.7248   -2.1049   -5.8303 H         1 <0>         0.4349
@<TRIPOS>BOND
     1    1    2 1
     2    1   30 1
     3    1   31 1
     4    1   32 1
     5    2    7 1
     6    2    3 2
     7    3    4 1
     8    3   15 1
     9    4    5 2
    10    4    6 am
    11    6    7 1
    12    6    9 1
    13    7    8 1
    14    8   33 1
    15    8   34 1
    16    8   35 1
    17    9   14 ar
    18    9   10 ar
    19   10   11 ar
    20   10   36 1
    21   11   12 ar
    22   11   37 1
    23   12   13 ar
    24   12   38 1
    25   13   14 ar
    26   13   39 1
    27   14   40 1
    28   15   16 am
    29   15   41 1
    30   16   17 2
    31   16   18 1
    32   18   19 1
    33   18   42 1
    34   18   43 1
    35   19   20 1
    36   19   44 1
    37   19   52 1
    38   20   21 1
    39   20   45 1
    40   20   46 1
    41   21   26 ar
    42   21   22 ar
    43   22   23 ar
    44   22   47 1
    45   23   24 ar
    46   23   48 1
    47   24   29 1
    48   24   25 ar
    49   25   26 ar
    50   25   27 1
    51   26   49 1
    52   27   28 1
    53   28   29 1
    54   28   50 1
    55   28   51 1
@<TRIPOS>MOLECULE
ZINC45470430
   56    58     0     0     0
SMALL
USER_CHARGES

@<TRIPOS>ATOM
      1 C1         -0.0187    1.5258    0.0104 C.3       1 <0>        -0.1564
      2 C2          0.0021   -0.0041    0.0020 C.3       1 <0>        -0.1207
      3 C3         -1.4333   -0.5336    0.0129 C.3       1 <0>         0.1363
      4 C4         -1.4451   -2.0450   -0.1033 C.2       1 <0>         0.5334
      5 O1         -0.9596   -2.8426    0.6699 O.2       1 <0>        -0.4382
      6 N1         -2.1080   -2.3175   -1.2446 N.am      1 <0>        -0.3800
      7 C5         -2.5126   -1.2001   -1.8591 C.2       1 <0>         0.7090
      8 O2         -3.1307   -1.1905   -2.9056 O.2       1 <0>        -0.5258
      9 N2         -2.1591   -0.0883   -1.1892 N.am      1 <0>        -0.7028
     10 N3         -2.3438   -3.6111   -1.7281 N.am      1 <0>        -0.4829
     11 C6         -3.5728   -4.1549   -1.6264 C.2       1 <0>         0.5105
     12 O3         -4.4746   -3.5245   -1.1164 O.2       1 <0>        -0.4982
     13 C7         -3.8264   -5.5464   -2.1465 C.3       1 <0>        -0.0187
     14 N4         -5.2325   -5.9055   -1.9189 N.4       1 <0>        -0.3719
     15 C8         -6.0976   -5.0281   -2.7187 C.3       1 <0>        -0.0661
     16 C9         -5.4514   -7.3029   -2.3158 C.3       1 <0>         0.0455
     17 C10        -6.8607   -7.7087   -1.9689 C.ar      1 <0>        -0.1727
     18 C11        -7.1283   -8.2574   -0.7160 C.ar      1 <0>        -0.1027
     19 C12        -8.3897   -8.6343   -0.3712 C.ar      1 <0>        -0.0942
     20 C13        -9.4407   -8.4686   -1.2898 C.ar      1 <0>         0.0086
     21 C14       -10.7551   -8.8455   -0.9685 C.ar      1 <0>        -0.1644
     22 C15       -11.7512   -8.6694   -1.8860 C.ar      1 <0>         0.1565
     23 C16       -11.4801   -8.1187   -3.1426 C.ar      1 <0>        -0.1809
     24 C17       -10.2184   -7.7441   -3.4841 C.ar      1 <0>        -0.0605
     25 C18        -9.1685   -7.9101   -2.5638 C.ar      1 <0>        -0.0948
     26 C19        -7.8540   -7.5287   -2.8818 C.ar      1 <0>        -0.0469
     27 O4        -13.0224   -9.0345   -1.5740 O.3       1 <0>        -0.3102
     28 C20       -14.0213   -8.8260   -2.5743 C.3       1 <0>         0.0213
     29 C21        -2.1623   -0.0822    1.2800 C.3       1 <0>        -0.1542
     30 H1          1.0039    1.9031    0.0027 H         1 <0>         0.0736
     31 H2         -0.5459    1.8868   -0.8726 H         1 <0>         0.0588
     32 H3         -0.5289    1.8773    0.9072 H         1 <0>         0.0683
     33 H4          0.5123   -0.3556   -0.8948 H         1 <0>         0.0776
     34 H5          0.5293   -0.3651    0.8851 H         1 <0>         0.0970
     35 H6         -2.3461    0.8279   -1.4471 H         1 <0>         0.4495
     36 H7         -1.6225   -4.1154   -2.1360 H         1 <0>         0.4375
     37 H8         -3.6111   -5.5800   -3.2145 H         1 <0>         0.1707
     38 H9         -3.1817   -6.2529   -1.6236 H         1 <0>         0.1709
     39 H10        -7.1410   -5.2945   -2.5498 H         1 <0>         0.1286
     40 H11        -5.9352   -3.9913   -2.4242 H         1 <0>         0.1390
     41 H12        -5.8586   -5.1473   -3.7754 H         1 <0>         0.1228
     42 H13        -5.2983   -7.4036   -3.3903 H         1 <0>         0.1394
     43 H14        -4.7476   -7.9454   -1.7867 H         1 <0>         0.1409
     44 H15        -6.3225   -8.3858   -0.0084 H         1 <0>         0.1309
     45 H16        -8.5821   -9.0588    0.6031 H         1 <0>         0.1398
     46 H17       -10.9766   -9.2725   -0.0015 H         1 <0>         0.1434
     47 H18       -12.2843   -7.9894   -3.8519 H         1 <0>         0.1401
     48 H19       -10.0234   -7.3208   -4.4584 H         1 <0>         0.1385
     49 H20        -7.6323   -7.0984   -3.8473 H         1 <0>         0.1355
     50 H21       -14.9882   -9.1593   -2.1973 H         1 <0>         0.1092
     51 H22       -14.0733   -7.7654   -2.8204 H         1 <0>         0.0606
     52 H23       -13.7645   -9.3943   -3.4683 H         1 <0>         0.0610
     53 H24        -2.1868    1.0069    1.3166 H         1 <0>         0.0938
     54 H25        -3.1816   -0.4684    1.2699 H         1 <0>         0.0708
     55 H26        -1.6380   -0.4635    2.1562 H         1 <0>         0.0914
     56 H27        -5.4537   -5.7951   -0.9407 H         1 <0>         0.4324
@<TRIPOS>BOND
     1    1    2 1
     2    1   30 1
     3    1   31 1
     4    1   32 1
     5    2    3 1
     6    2   33 1
     7    2   34 1
     8    3    9 1
     9    3    4 1
    10    3   29 1
    11    4    5 2
    12    4    6 am
    13    6    7 am
    14    6   10 1
    15    7    8 2
    16    7    9 am
    17    9   35 1
    18   10   11 am
    19   10   36 1
    20   11   12 2
    21   11   13 1
    22   13   14 1
    23   13   37 1
    24   13   38 1
    25   14   15 1
    26   14   16 1
    27   14   56 1
    28   15   39 1
    29   15   40 1
    30   15   41 1
    31   16   17 1
    32   16   42 1
    33   16   43 1
    34   17   26 ar
    35   17   18 ar
    36   18   19 ar
    37   18   44 1
    38   19   20 ar
    39   19   45 1
    40   20   25 ar
    41   20   21 ar
    42   21   22 ar
    43   21   46 1
    44   22   23 ar
    45   22   27 1
    46   23   24 ar
    47   23   47 1
    48   24   25 ar
    49   24   48 1
    50   25   26 ar
    51   26   49 1
    52   27   28 1
    53   28   50 1
    54   28   51 1
    55   28   52 1
    56   29   53 1
    57   29   54 1
    58   29   55 1
@<TRIPOS>MOLECULE
ZINC47778125
   62    65     0     0     0
SMALL
USER_CHARGES

@<TRIPOS>ATOM
      1 C1          0.0385    1.5543   -0.0806 C.2       1 <0>        -0.2124
      2 C2          1.4079    1.8953    0.0046 C.2       1 <0>        -0.1237
      3 C3          2.1016    0.7458   -0.0774 C.2       1 <0>        -0.1016
      4 O1          1.2299   -0.2676   -0.2070 O.3       1 <0>        -0.1764
      5 C4         -0.0227    0.2168   -0.2096 C.2       1 <0>         0.0105
      6 C5          3.6024    0.6169   -0.0320 C.3       1 <0>         0.1238
      7 H1          4.0388    1.5630    0.2885 H         1 <0>         0.1667
      8 C6          4.1260    0.2596   -1.4245 C.3       1 <0>         0.1158
      9 N1          5.5704    0.0243   -1.3576 N.am      1 <0>        -0.7657
     10 C7          6.2337   -0.4093   -2.4478 C.2       1 <0>         0.7087
     11 O2          5.6333   -0.6052   -3.4868 O.2       1 <0>        -0.5636
     12 N2          7.5626   -0.6258   -2.3863 N.am      1 <0>        -0.7370
     13 C8          8.2836   -1.0972   -3.5712 C.3       1 <0>         0.1412
     14 C9          9.7669   -1.2609   -3.2341 C.3       1 <0>        -0.0390
     15 C10        10.5086   -1.7457   -4.4530 C.2       1 <0>         0.1620
     16 N3         10.7101   -2.9909   -4.7947 N.2       1 <0>        -0.2817
     17 N4         11.3735   -3.0366   -5.8972 N.2       1 <0>        -0.2888
     18 C11        11.6202   -1.8253   -6.3077 C.2       1 <0>         0.1923
     19 N5         11.0852   -0.9745   -5.4012 N.pl3     1 <0>        -0.4641
     20 C12        11.1412    0.4871   -5.4395 C.3       1 <0>         0.1027
     21 C13        11.2380    0.9540   -6.8946 C.3       1 <0>        -0.1420
     22 C14        12.7056    1.0395   -7.3115 C.3       1 <0>        -0.1265
     23 C15        13.3681   -0.3317   -7.2196 C.3       1 <0>        -0.1248
     24 C16        12.3526   -1.4195   -7.5604 C.3       1 <0>        -0.0411
     25 N6          3.9746   -0.4406    0.9173 N.4       1 <0>        -0.3818
     26 C17         3.4600   -1.7291    0.4385 C.3       1 <0>        -0.0239
     27 C18         3.9138   -2.8459    1.3810 C.3       1 <0>        -0.1411
     28 C19         3.3745   -2.5699    2.7875 C.3       1 <0>        -0.1390
     29 C20         3.8568   -1.1910    3.2470 C.3       1 <0>        -0.1434
     30 C21         3.4051   -0.1355    2.2353 C.3       1 <0>        -0.0068
     31 H2         -0.7981    2.2364   -0.0444 H         1 <0>         0.1649
     32 H3          1.8183    2.8883    0.1139 H         1 <0>         0.1631
     33 H4         -0.9260   -0.3684   -0.2996 H         1 <0>         0.2192
     34 H5          3.6270   -0.6419   -1.7800 H         1 <0>         0.1034
     35 H6          3.9232    1.0818   -2.1109 H         1 <0>         0.1166
     36 H7          6.0494    0.1805   -0.5287 H         1 <0>         0.3912
     37 H8          8.0415   -0.4696   -1.5574 H         1 <0>         0.3995
     38 H9          7.8748   -2.0568   -3.8875 H         1 <0>         0.0835
     39 H10         8.1720   -0.3715   -4.3769 H         1 <0>         0.0718
     40 H11        10.1757   -0.3012   -2.9179 H         1 <0>         0.0894
     41 H12         9.8785   -1.9865   -2.4284 H         1 <0>         0.1082
     42 H13        10.2393    0.8975   -4.9852 H         1 <0>         0.0934
     43 H14        12.0158    0.8321   -4.8880 H         1 <0>         0.0922
     44 H15        10.7188    0.2442   -7.5385 H         1 <0>         0.0825
     45 H16        10.7756    1.9362   -6.9918 H         1 <0>         0.0906
     46 H17        12.7674    1.4008   -8.3381 H         1 <0>         0.0773
     47 H18        13.2264    1.7355   -6.6539 H         1 <0>         0.0714
     48 H19        14.2007   -0.3802   -7.9214 H         1 <0>         0.0852
     49 H20        13.7382   -0.4888   -6.2065 H         1 <0>         0.0642
     50 H21        12.8653   -2.2853   -7.9796 H         1 <0>         0.1048
     51 H22        11.6414   -1.0281   -8.2878 H         1 <0>         0.0952
     52 H23         2.3708   -1.6974    0.4113 H         1 <0>         0.1430
     53 H24         3.8421   -1.9226   -0.5639 H         1 <0>         0.1317
     54 H25         3.5292   -3.8016    1.0248 H         1 <0>         0.1134
     55 H26         5.0029   -2.8787    1.4087 H         1 <0>         0.0865
     56 H27         2.2848   -2.5878    2.7701 H         1 <0>         0.0819
     57 H28         3.7418   -3.3321    3.4747 H         1 <0>         0.0956
     58 H29         3.4315   -0.9637    4.2245 H         1 <0>         0.1139
     59 H30         4.9448   -1.1894    3.3134 H         1 <0>         0.0879
     60 H31         3.7467    0.8475    2.5595 H         1 <0>         0.1313
     61 H32         2.3171   -0.1377    2.1698 H         1 <0>         0.1295
     62 H33         4.9800   -0.4880    0.9892 H         1 <0>         0.4188
@<TRIPOS>BOND
     1    1    5 2
     2    1    2 1
     3    1   31 1
     4    2    3 2
     5    2   32 1
     6    3    4 1
     7    3    6 1
     8    4    5 1
     9    5   33 1
    10    6    7 1
    11    6    8 1
    12    6   25 1
    13    8    9 1
    14    8   34 1
    15    8   35 1
    16    9   10 am
    17    9   36 1
    18   10   11 2
    19   10   12 am
    20   12   13 1
    21   12   37 1
    22   13   14 1
    23   13   38 1
    24   13   39 1
    25   14   15 1
    26   14   40 1
    27   14   41 1
    28   15   19 1
    29   15   16 2
    30   16   17 1
    31   17   18 2
    32   18   24 1
    33   18   19 1
    34   19   20 1
    35   20   21 1
    36   20   42 1
    37   20   43 1
    38   21   22 1
    39   21   44 1
    40   21   45 1
    41   22   23 1
    42   22   46 1
    43   22   47 1
    44   23   24 1
    45   23   48 1
    46   23   49 1
    47   24   50 1
    48   24   51 1
    49   25   30 1
    50   25   26 1
    51   25   62 1
    52   26   27 1
    53   26   52 1
    54   26   53 1
    55   27   28 1
    56   27   54 1
    57   27   55 1
    58   28   29 1
    59   28   56 1
    60   28   57 1
    61   29   30 1
    62   29   58 1
    63   29   59 1
    64   30   60 1
    65   30   61 1
@<TRIPOS>MOLECULE
ZINC63908648
   55    59     0     0     0
SMALL
USER_CHARGES

@<TRIPOS>ATOM
      1 C1         -0.0187    1.5258    0.0104 C.3       1 <0>        -0.1651
      2 C2          0.0021   -0.0041    0.0020 C.3       1 <0>         0.2302
      3 H1          0.5123   -0.3556   -0.8948 H         1 <0>         0.1206
      4 C3          0.7309   -0.5033    1.2229 C.2       1 <0>         0.0106
      5 C4          2.0054   -0.9167    1.2399 C.2       1 <0>        -0.1785
      6 C5          2.2901   -1.3083    2.6255 C.ar      1 <0>        -0.1338
      7 C6          3.4100   -1.8118    3.2858 C.ar      1 <0>        -0.0680
      8 C7          3.3434   -2.0807    4.6248 C.ar      1 <0>        -0.1325
      9 C8          2.1691   -1.8561    5.3288 C.ar      1 <0>        -0.0868
     10 C9          1.0518   -1.3587    4.6929 C.ar      1 <0>        -0.1080
     11 C10         1.0983   -1.0783    3.3329 C.ar      1 <0>         0.0568
     12 O1          0.1985   -0.5929    2.4542 O.3       1 <0>        -0.1916
     13 N1         -1.3723   -0.5112    0.0124 N.am      1 <0>        -0.7182
     14 C11        -2.0508   -0.6427   -1.1446 C.2       1 <0>         0.5094
     15 O2         -1.5236   -0.3413   -2.1944 O.2       1 <0>        -0.5310
     16 C12        -3.4646   -1.1643   -1.1339 C.3       1 <0>         0.0973
     17 N2         -3.9776   -1.2130   -2.5053 N.am      1 <0>        -0.5569
     18 C13        -4.6214   -0.1948   -3.1094 C.2       1 <0>         0.5348
     19 O3         -4.8758    0.8929   -2.6384 O.2       1 <0>        -0.4416
     20 C14        -4.9606   -0.6922   -4.5006 C.3       1 <0>         0.1021
     21 H2         -6.0402   -0.7056   -4.6504 H         1 <0>         0.1408
     22 N3         -4.4175   -2.0614   -4.5207 N.am      1 <0>        -0.7324
     23 C15        -3.8596   -2.2718   -3.3147 C.2       1 <0>         0.7107
     24 O4         -3.3126   -3.3090   -2.9951 O.2       1 <0>        -0.5155
     25 C16        -4.2821    0.1752   -5.5627 C.3       1 <0>        -0.0932
     26 C17        -4.7325   -0.2634   -6.9323 C.2       1 <0>         0.0597
     27 C18        -5.7369    0.2671   -7.6666 C.ar      1 <0>        -0.1598
     28 C19        -6.6754    1.3681   -7.4189 C.ar      1 <0>        -0.0150
     29 C20        -7.5930    1.6732   -8.3645 C.ar      1 <0>        -0.1475
     30 C21        -7.6702    0.9656   -9.5720 C.ar      1 <0>         0.0569
     31 C22        -6.8428   -0.0580   -9.8716 C.ar      1 <0>        -0.2100
     32 C23        -5.8389   -0.4641   -8.9497 C.ar      1 <0>         0.3291
     33 N4         -4.9328   -1.4098   -9.0065 N.pl3     1 <0>        -0.5827
     34 C24        -4.1487   -1.3815   -7.7667 C.3       1 <0>         0.0605
     35 H3          1.0039    1.9031    0.0027 H         1 <0>         0.0774
     36 H4         -0.5459    1.8868   -0.8726 H         1 <0>         0.0733
     37 H5         -0.5289    1.8773    0.9072 H         1 <0>         0.0674
     38 H6          2.6862   -0.9543    0.4023 H         1 <0>         0.1610
     39 H7          4.3261   -1.9889    2.7420 H         1 <0>         0.1297
     40 H8          4.2102   -2.4708    5.1375 H         1 <0>         0.1331
     41 H9          2.1299   -2.0735    6.3860 H         1 <0>         0.1387
     42 H10         0.1426   -1.1878    5.2502 H         1 <0>         0.1341
     43 H11        -1.7940   -0.7522    0.8520 H         1 <0>         0.4115
     44 H12        -3.4790   -2.1662   -0.7048 H         1 <0>         0.1360
     45 H13        -4.0912   -0.5035   -0.5349 H         1 <0>         0.1349
     46 H14        -4.4526   -2.6880   -5.2603 H         1 <0>         0.4358
     47 H15        -4.5545    1.2191   -5.4076 H         1 <0>         0.1373
     48 H16        -3.2004    0.0665   -5.4838 H         1 <0>         0.1285
     49 H17        -6.6341    1.9262   -6.4952 H         1 <0>         0.1645
     50 H18        -8.2845    2.4830   -8.1844 H         1 <0>         0.1598
     51 H19        -8.4229    1.2508  -10.2921 H         1 <0>         0.1621
     52 H20        -6.9438   -0.5715  -10.8163 H         1 <0>         0.1616
     53 H21        -3.1007   -1.1780   -7.9870 H         1 <0>         0.1788
     54 H22        -4.2452   -2.3318   -7.2418 H         1 <0>         0.1658
     55 H23        -4.8003   -2.0232   -9.7461 H         1 <0>         0.4572
@<TRIPOS>BOND
     1    1    2 1
     2    1   35 1
     3    1   36 1
     4    1   37 1
     5    2    3 1
     6    2    4 1
     7    2   13 1
     8    4   12 1
     9    4    5 2
    10    5    6 1
    11    5   38 1
    12    6   11 ar
    13    6    7 ar
    14    7    8 ar
    15    7   39 1
    16    8    9 ar
    17    8   40 1
    18    9   10 ar
    19    9   41 1
    20   10   11 ar
    21   10   42 1
    22   11   12 1
    23   13   14 am
    24   13   43 1
    25   14   15 2
    26   14   16 1
    27   16   17 1
    28   16   44 1
    29   16   45 1
    30   17   23 am
    31   17   18 am
    32   18   19 2
    33   18   20 1
    34   20   21 1
    35   20   22 1
    36   20   25 1
    37   22   23 am
    38   22   46 1
    39   23   24 2
    40   25   26 1
    41   25   47 1
    42   25   48 1
    43   26   34 1
    44   26   27 2
    45   27   32 ar
    46   27   28 ar
    47   28   29 ar
    48   28   49 1
    49   29   30 ar
    50   29   50 1
    51   30   31 ar
    52   30   51 1
    53   31   32 ar
    54   31   52 1
    55   32   33 2
    56   33   34 1
    57   33   55 1
    58   34   53 1
    59   34   54 1
@<TRIPOS>MOLECULE
ZINC12374967
   25    27     0     0     0
SMALL
USER_CHARGES
(7R)-2-amino-7-(2-thienyl)-6,7-dihydro-4H-thiazolo[5,4-e]pyridin-5-one
@<TRIPOS>ATOM
      1 C1          2.2199    1.0478   -0.0135 C.2       1 <0>        -0.1583
      2 C2          1.3000    2.0794    0.0008 C.2       1 <0>        -0.1463
      3 C3         -0.0221    1.7810    0.0118 C.2       1 <0>        -0.1468
      4 S1          0.0021   -0.0041    0.0020 S.3       1 <0>         0.0475
      5 C4          1.7727   -0.2318   -0.0161 C.2       1 <0>        -0.1723
      6 C5         -1.2055    2.7140    0.0228 C.3       1 <0>         0.1065
      7 H1         -0.8591    3.7474    0.0375 H         1 <0>         0.1205
      8 C6         -2.0667    2.4737   -1.2258 C.3       1 <0>        -0.1285
      9 C7         -2.9084    1.2408   -1.0569 C.2       1 <0>         0.5291
     10 O1         -3.0835    0.5254   -2.0208 O.2       1 <0>        -0.5136
     11 N1         -3.4775    0.8918    0.1099 N.am      1 <0>        -0.6381
     12 C8         -3.1127    1.5973    1.2883 C.2       1 <0>         0.3629
     13 C9         -2.0446    2.4473    1.2235 C.2       1 <0>        -0.3056
     14 S2         -1.9600    3.0889    2.8691 S.3       1 <0>         0.1053
     15 C10        -3.3038    2.1947    3.5174 C.2       1 <0>         0.3793
     16 N2         -3.7088    1.4986    2.4712 N.2       1 <0>        -0.6039
     17 N3         -3.8183    2.2095    4.8040 N.pl3     1 <0>        -0.7917
     18 H2          3.2792    1.2581   -0.0228 H         1 <0>         0.1349
     19 H3          1.6298    3.1078    0.0028 H         1 <0>         0.1351
     20 H4          2.3402   -1.1506   -0.0262 H         1 <0>         0.1853
     21 H5         -2.7169    3.3339   -1.3851 H         1 <0>         0.1179
     22 H6         -1.4170    2.3496   -2.0922 H         1 <0>         0.1204
     23 H7         -4.1259    0.1713    0.1469 H         1 <0>         0.4171
     24 H8         -4.5810    1.6535    5.0278 H         1 <0>         0.4188
     25 H9         -3.4159    2.7760    5.4808 H         1 <0>         0.4247
@<TRIPOS>BOND
     1    1    5 2
     2    1    2 1
     3    1   18 1
     4    2    3 2
     5    2   19 1
     6    3    4 1
     7    3    6 1
     8    4    5 1
     9    5   20 1
    10    6    7 1
    11    6   13 1
    12    6    8 1
    13    8    9 1
    14    8   21 1
    15    8   22 1
    16    9   10 2
    17    9   11 am
    18   11   12 1
    19   11   23 1
    20   12   16 1
    21   12   13 2
    22   13   14 1
    23   14   15 1
    24   15   16 2
    25   15   17 1
    26   17   24 1
    27   17   25 1
@<TRIPOS>MOLECULE
ZINC36142242
   31    32     0     0     0
SMALL
USER_CHARGES

@<TRIPOS>ATOM
      1 C1         -0.3670    1.3819   -0.4632 C.3       1 <0>        -0.2109
      2 C2         -0.2630   -0.1442   -0.4952 C.3       1 <0>         0.1273
      3 C3          0.6707   -0.5746   -1.6337 C.3       1 <0>        -0.1503
      4 C4          2.0134    0.1368   -1.4492 C.3       1 <0>         0.0261
      5 C5          2.4738   -0.0103   -0.0210 C.ar      1 <0>        -0.1541
      6 C6          3.8068    0.2206    0.2762 C.ar      1 <0>        -0.0640
      7 C7          4.2628    0.0991    1.5752 C.ar      1 <0>        -0.0623
      8 C8          3.3854   -0.2546    2.5853 C.ar      1 <0>        -0.0610
      9 C9          2.0572   -0.4876    2.2936 C.ar      1 <0>        -0.1332
     10 C10         1.5955   -0.3678    0.9865 C.ar      1 <0>         0.1705
     11 O1          0.2829   -0.6151    0.7377 O.3       1 <0>        -0.3020
     12 Cl1         5.9351    0.3896    1.9394 Cl        1 <0>        -0.0607
     13 C11         1.8553    1.5992   -1.7770 C.2       1 <0>         0.5012
     14 O2          2.1511    2.4448   -0.9500 O.co2     1 <0>        -0.6183
     15 O3          1.4315    1.9367   -2.8692 O.co2     1 <0>        -0.6478
     16 N1          3.0103   -0.4598   -2.3481 N.4       1 <0>        -0.6118
     17 C12        -1.6513   -0.7508   -0.7091 C.3       1 <0>        -0.1383
     18 H1          0.5495    1.7999   -0.0468 H         1 <0>         0.1050
     19 H2         -0.5103    1.7577   -1.4763 H         1 <0>         0.0872
     20 H3         -1.2144    1.6754    0.1564 H         1 <0>         0.0639
     21 H4          0.8190   -1.6539   -1.5990 H         1 <0>         0.0861
     22 H5          0.2348   -0.2937   -2.5924 H         1 <0>         0.1151
     23 H6          4.4929    0.4971   -0.5106 H         1 <0>         0.1266
     24 H7          3.7401   -0.3480    3.6011 H         1 <0>         0.1458
     25 H8          1.3734   -0.7635    3.0827 H         1 <0>         0.1472
     26 H9          2.7044   -0.3586   -3.3042 H         1 <0>         0.4384
     27 H10         3.8957    0.0088   -2.2269 H         1 <0>         0.4286
     28 H11        -2.0608   -0.3965   -1.6550 H         1 <0>         0.0846
     29 H12        -1.5733   -1.8378   -0.7313 H         1 <0>         0.0670
     30 H13        -2.3087   -0.4503    0.1068 H         1 <0>         0.0757
     31 H14         3.1158   -1.4394   -2.1306 H         1 <0>         0.4184
@<TRIPOS>BOND
     1    1    2 1
     2    1   18 1
     3    1   19 1
     4    1   20 1
     5    2   11 1
     6    2    3 1
     7    2   17 1
     8    3    4 1
     9    3   21 1
    10    3   22 1
    11    4    5 1
    12    4   13 1
    13    4   16 1
    14    5   10 ar
    15    5    6 ar
    16    6    7 ar
    17    6   23 1
    18    7    8 ar
    19    7   12 1
    20    8    9 ar
    21    8   24 1
    22    9   10 ar
    23    9   25 1
    24   10   11 1
    25   13   14 2
    26   13   15 1
    27   16   26 1
    28   16   27 1
    29   16   31 1
    30   17   28 1
    31   17   29 1
    32   17   30 1
@<TRIPOS>MOLECULE
ZINC42191231
   38    39     0     0     0
SMALL
USER_CHARGES

@<TRIPOS>ATOM
      1 C1         -0.0187    1.5258    0.0104 C.3       1 <0>        -0.1646
      2 C2          0.0021   -0.0041    0.0020 C.3       1 <0>         0.1869
      3 C3          0.7421   -0.5109    1.2415 C.3       1 <0>        -0.1649
      4 C4         -1.4333   -0.5336    0.0129 C.3       1 <0>        -0.1560
      5 N1          0.6878   -0.4765   -1.2033 N.am      1 <0>        -0.7398
      6 C5          1.9715   -0.1323   -1.4270 C.2       1 <0>         0.7052
      7 O1          2.5605    0.5704   -0.6285 O.2       1 <0>        -0.5858
      8 N2          2.6023   -0.5669   -2.5359 N.am      1 <0>        -0.7302
      9 C6          3.9977   -0.1927   -2.7790 C.3       1 <0>         0.2141
     10 H1          4.1899    0.8126   -2.4041 H         1 <0>         0.1127
     11 C7          4.9304   -1.1862   -2.1201 C.ar      1 <0>        -0.1076
     12 C8          4.8833   -1.7634   -0.8621 C.ar      1 <0>        -0.0826
     13 C9          5.8599   -2.6581   -0.4709 C.ar      1 <0>        -0.1236
     14 C10         6.8886   -2.9789   -1.3371 C.ar      1 <0>        -0.1138
     15 C11         6.9375   -2.4041   -2.5918 C.ar      1 <0>        -0.1103
     16 C12         5.9588   -1.5070   -2.9861 C.ar      1 <0>        -0.0906
     17 C13         5.7876   -0.7508   -4.2862 C.3       1 <0>        -0.1132
     18 C14         4.3187   -0.2724   -4.2867 C.3       1 <0>         0.0992
     19 H2          4.2290    0.7081   -4.7543 H         1 <0>         0.0831
     20 O2          3.4748   -1.2255   -4.9359 O.3       1 <0>        -0.5581
     21 H3          1.0039    1.9031    0.0027 H         1 <0>         0.0803
     22 H4         -0.5459    1.8868   -0.8726 H         1 <0>         0.0518
     23 H5         -0.5289    1.8773    0.9072 H         1 <0>         0.0617
     24 H6          0.2319   -0.1594    2.1383 H         1 <0>         0.0619
     25 H7          0.7568   -1.6008    1.2356 H         1 <0>         0.0518
     26 H8          1.7647   -0.1336    1.2338 H         1 <0>         0.0802
     27 H9         -1.9605   -0.1726   -0.8702 H         1 <0>         0.0616
     28 H10        -1.4185   -1.6235    0.0069 H         1 <0>         0.0615
     29 H11        -1.9435   -0.1821    0.9097 H         1 <0>         0.0749
     30 H12         0.2179   -1.0371   -1.8404 H         1 <0>         0.3945
     31 H13         2.1325   -1.1275   -3.1729 H         1 <0>         0.4062
     32 H14         4.0800   -1.5133   -0.1849 H         1 <0>         0.1199
     33 H15         5.8203   -3.1065    0.5109 H         1 <0>         0.1233
     34 H16         7.6533   -3.6782   -1.0327 H         1 <0>         0.1243
     35 H17         7.7416   -2.6549   -3.2678 H         1 <0>         0.1201
     36 H18         6.4625    0.1046   -4.3179 H         1 <0>         0.0931
     37 H19         5.9716   -1.4103   -5.1343 H         1 <0>         0.0860
     38 H20         3.6375   -1.3126   -5.8852 H         1 <0>         0.3869
@<TRIPOS>BOND
     1    1    2 1
     2    1   21 1
     3    1   22 1
     4    1   23 1
     5    2    3 1
     6    2    4 1
     7    2    5 1
     8    3   24 1
     9    3   25 1
    10    3   26 1
    11    4   27 1
    12    4   28 1
    13    4   29 1
    14    5    6 am
    15    5   30 1
    16    6    7 2
    17    6    8 am
    18    8    9 1
    19    8   31 1
    20    9   10 1
    21    9   18 1
    22    9   11 1
    23   11   16 ar
    24   11   12 ar
    25   12   13 ar
    26   12   32 1
    27   13   14 ar
    28   13   33 1
    29   14   15 ar
    30   14   34 1
    31   15   16 ar
    32   15   35 1
    33   16   17 1
    34   17   18 1
    35   17   36 1
    36   17   37 1
    37   18   19 1
    38   18   20 1
    39   20   38 1
@<TRIPOS>MOLECULE
ZINC52176839
   42    43     0     0     0
SMALL
NO_CHARGES

@<TRIPOS>ATOM
      1 C1         -0.0923    1.4157    0.0838 C.3       1 <0>        -0.1453
      2 C2          0.0378   -0.1085    0.0546 C.3       1 <0>         0.0306
      3 C3          0.9644   -0.5630    1.1840 C.3       1 <0>        -0.1516
      4 C4         -1.3424   -0.7419    0.2411 C.3       1 <0>        -0.1408
      5 C5          0.6128   -0.5382   -1.2705 C.cat     1 <0>         0.0379
      6 N1         -0.0558   -1.1952   -2.1511 N.pl3     1 <0>        -0.6693
      7 C6          0.8215   -1.4372   -3.3069 C.3       1 <0>         0.2547
      8 C7          2.1323   -0.7847   -2.9109 C.cat     1 <0>        -0.0474
      9 N2          1.8940   -0.2633   -1.6574 N.pl3     1 <0>        -0.3451
     10 C8          2.8728    0.4749   -0.8554 C.3       1 <0>         0.0629
     11 N3          3.2259   -0.7265   -3.5970 N.pl3     1 <0>        -0.8273
     12 C9          1.0147   -2.9385   -3.5295 C.3       1 <0>        -0.1135
     13 C10         1.4894   -3.5926   -2.2283 C.3       1 <0>        -0.1287
     14 C11         1.6042   -5.1047   -2.4386 C.3       1 <0>         0.0582
     15 O1          0.3401   -5.6233   -2.8574 O.3       1 <0>        -0.3849
     16 C12        -0.1319   -5.0827   -4.0932 C.3       1 <0>         0.0609
     17 C13        -0.3164   -3.5697   -3.9493 C.3       1 <0>        -0.1489
     18 H1          0.9004    1.8655    0.0676 H         1 <0>         0.0515
     19 H2         -0.6565    1.7489   -0.7872 H         1 <0>         0.0570
     20 H3         -0.6136    1.7184    0.9920 H         1 <0>         0.0558
     21 H4          0.5485   -0.2522    2.1424 H         1 <0>         0.0559
     22 H5          1.0571   -1.6489    1.1632 H         1 <0>         0.0563
     23 H6          1.9477   -0.1118    1.0511 H         1 <0>         0.0558
     24 H7         -2.0025   -0.4181   -0.5636 H         1 <0>         0.0559
     25 H8         -1.2497   -1.8277    0.2202 H         1 <0>         0.0585
     26 H9         -1.7583   -0.4311    1.1995 H         1 <0>         0.0611
     27 H10         3.4593   -0.2265   -0.2620 H         1 <0>         0.0725
     28 H11         3.5352    1.0348   -1.5155 H         1 <0>         0.0758
     29 H12         2.3522    1.1655   -0.1920 H         1 <0>         0.0924
     30 H13         3.2686   -1.1324   -4.4769 H         1 <0>         0.4015
     31 H14         0.4131   -0.9682   -4.2021 H         1 <0>         0.0335
     32 H15         1.7569   -3.0987   -4.3116 H         1 <0>         0.0677
     33 H16         2.4632   -3.1884   -1.9516 H         1 <0>         0.0691
     34 H17         0.7705   -3.3887   -1.4348 H         1 <0>         0.0705
     35 H18         2.3527   -5.3094   -3.2040 H         1 <0>         0.0446
     36 H19         1.9005   -5.5802   -1.5037 H         1 <0>         0.0873
     37 H20         0.5940   -5.2872   -4.8802 H         1 <0>         0.0471
     38 H21        -1.0862   -5.5425   -4.3501 H         1 <0>         0.0902
     39 H22        -1.0717   -3.3654   -3.1905 H         1 <0>         0.0666
     40 H23        -0.6341   -3.1492   -4.9034 H         1 <0>         0.0696
     41 H24        -0.9787   -1.4818   -2.0675 H         1 <0>         0.4184
     42 H25         4.0041   -0.2769   -3.2320 H         1 <0>         0.3827
@<TRIPOS>BOND
     1    1    2 1
     2    1   18 1
     3    1   19 1
     4    1   20 1
     5    2    3 1
     6    2    4 1
     7    2    5 1
     8    3   21 1
     9    3   22 1
    10    3   23 1
    11    4   24 1
    12    4   25 1
    13    4   26 1
    14    5    6 2
    15    5    9 1
    16    6    7 1
    17    6   41 1
    18    7   12 1
    19    7   31 1
    20    7    8 1
    21    8    9 1
    22    8   11 2
    23    9   10 1
    24   10   27 1
    25   10   28 1
    26   10   29 1
    27   11   30 1
    28   11   42 1
    29   12   17 1
    30   12   13 1
    31   12   32 1
    32   13   14 1
    33   13   33 1
    34   13   34 1
    35   14   15 1
    36   14   35 1
    37   14   36 1
    38   15   16 1
    39   16   17 1
    40   16   37 1
    41   16   38 1
    42   17   39 1
    43   17   40 1
@<TRIPOS>MOLECULE
ZINC62531711
   35    36     0     0     0
SMALL
USER_CHARGES

@<TRIPOS>ATOM
      1 C1         -0.0184    1.5028    0.0103 C.3       1 <0>        -0.1082
      2 C2          0.0021   -0.0041    0.0020 C.ar      1 <0>        -0.1513
      3 C3          0.0057   -0.6878   -1.1997 C.ar      1 <0>        -0.0396
      4 C4          0.0233   -2.0726   -1.2071 C.ar      1 <0>         0.0539
      5 C5          0.0353   -2.7786   -0.0046 C.ar      1 <0>         0.1300
      6 C6          0.0342   -2.0929    1.1971 C.ar      1 <0>        -0.1588
      7 C7          0.0230   -0.7038    1.2012 C.ar      1 <0>         0.2311
      8 N1          0.0270   -0.0089    2.4152 N.pl3     1 <0>        -0.8716
      9 C8          0.0507   -2.8516    2.4991 C.3       1 <0>        -0.1060
     10 O1          0.0416   -4.1377   -0.0214 O.3       1 <0>        -0.3178
     11 C9         -1.1832   -4.7907   -0.3448 C.3       1 <0>         0.1006
     12 H1         -0.9807   -5.8314   -0.5980 H         1 <0>         0.1180
     13 C10        -1.8573   -4.1046   -1.5309 C.3       1 <0>        -0.1765
     14 C11        -0.8390   -3.7979   -2.5985 C.2       1 <0>         0.5284
     15 O2         -0.8016   -4.4610   -3.6135 O.2       1 <0>        -0.5305
     16 N2          0.0322   -2.7799   -2.4197 N.am      1 <0>        -0.6612
     17 C12        -2.1195   -4.7372    0.8640 C.3       1 <0>        -0.1828
     18 C13        -0.0090    0.0732   -2.5003 C.3       1 <0>        -0.1208
     19 H2          1.0042    1.8801    0.0026 H         1 <0>         0.0695
     20 H3         -0.5455    1.8639   -0.8728 H         1 <0>         0.0732
     21 H4         -0.5286    1.8543    0.9071 H         1 <0>         0.0610
     22 H5          0.0151    0.9610    2.4189 H         1 <0>         0.4002
     23 H6          0.0415   -0.4970    3.2533 H         1 <0>         0.3997
     24 H7          1.0822   -3.0223    2.8071 H         1 <0>         0.0690
     25 H8         -0.4656   -2.2717    3.2641 H         1 <0>         0.0595
     26 H9         -0.4526   -3.8095    2.3679 H         1 <0>         0.0762
     27 H10        -2.6240   -4.7620   -1.9409 H         1 <0>         0.1154
     28 H11        -2.3208   -3.1766   -1.1961 H         1 <0>         0.0967
     29 H12         0.6573   -2.5409   -3.1218 H         1 <0>         0.4091
     30 H13        -2.3180   -3.6975    1.1242 H         1 <0>         0.0650
     31 H14        -3.0573   -5.2361    0.6196 H         1 <0>         0.0745
     32 H15        -1.6502   -5.2401    1.7096 H         1 <0>         0.0737
     33 H16         1.0150    0.2694   -2.8181 H         1 <0>         0.0761
     34 H17        -0.5186   -0.5178   -3.2613 H         1 <0>         0.0674
     35 H18        -0.5341    1.0184   -2.3623 H         1 <0>         0.0773
@<TRIPOS>BOND
     1    1    2 1
     2    1   19 1
     3    1   20 1
     4    1   21 1
     5    2    7 ar
     6    2    3 ar
     7    3    4 ar
     8    3   18 1
     9    4   16 1
    10    4    5 ar
    11    5    6 ar
    12    5   10 1
    13    6    7 ar
    14    6    9 1
    15    7    8 1
    16    8   22 1
    17    8   23 1
    18    9   24 1
    19    9   25 1
    20    9   26 1
    21   10   11 1
    22   11   12 1
    23   11   13 1
    24   11   17 1
    25   13   14 1
    26   13   27 1
    27   13   28 1
    28   14   15 2
    29   14   16 am
    30   16   29 1
    31   17   30 1
    32   17   31 1
    33   17   32 1
    34   18   33 1
    35   18   34 1
    36   18   35 1
@<TRIPOS>MOLECULE
ZINC36871147
   38    39     0     0     0
SMALL
USER_CHARGES

@<TRIPOS>ATOM
      1 C1          0.7446    1.4857   -0.2886 C.3       1 <0>        -0.1728
      2 C2          0.7806   -0.0417   -0.3698 C.3       1 <0>        -0.1458
      3 C3          0.7866   -0.4744   -1.8373 C.3       1 <0>         0.0115
      4 H1         -0.0675   -0.0320   -2.3501 H         1 <0>         0.1675
      5 C4          0.6981   -1.9767   -1.9184 C.2       1 <0>         0.4987
      6 O1          1.6993   -2.6336   -2.1106 O.2       1 <0>        -0.5054
      7 N1         -0.4937   -2.5901   -1.7773 N.am      1 <0>        -0.6393
      8 C5         -0.5918   -3.9756   -1.9467 C.ar      1 <0>         0.1127
      9 C6          0.4542   -4.7940   -1.5497 C.ar      1 <0>        -0.1156
     10 C7          0.3555   -6.1610   -1.7190 C.ar      1 <0>        -0.1029
     11 C8         -0.7811   -6.7029   -2.2842 C.ar      1 <0>        -0.1155
     12 C9         -1.8318   -5.8871   -2.6852 C.ar      1 <0>        -0.0540
     13 C10        -1.7439   -4.5255   -2.5089 C.ar      1 <0>        -0.0868
     14 C11        -2.8525   -3.5835   -2.8994 C.3       1 <0>        -0.0824
     15 C12        -3.8206   -4.2640   -3.8650 C.3       1 <0>        -0.1207
     16 C13        -4.2438   -5.6074   -3.2593 C.3       1 <0>        -0.1226
     17 C14        -3.0368   -6.5485   -3.3015 C.3       1 <0>        -0.0864
     18 N2          2.0296   -0.0219   -2.4762 N.4       1 <0>        -0.6210
     19 H2          1.6237    1.8968   -0.7851 H         1 <0>         0.0569
     20 H3         -0.1558    1.8546   -0.7799 H         1 <0>         0.0770
     21 H4          0.7404    1.7940    0.7568 H         1 <0>         0.0909
     22 H5          1.6810   -0.4105    0.1214 H         1 <0>         0.1000
     23 H6         -0.0984   -0.4527    0.1267 H         1 <0>         0.1171
     24 H7         -1.2834   -2.0711   -1.5583 H         1 <0>         0.4179
     25 H8          1.3424   -4.3645   -1.1104 H         1 <0>         0.1375
     26 H9          1.1659   -6.8045   -1.4101 H         1 <0>         0.1321
     27 H10        -0.8543   -7.7722   -2.4165 H         1 <0>         0.1300
     28 H11        -3.3941   -3.2755   -2.0050 H         1 <0>         0.0783
     29 H12        -2.4242   -2.7040   -3.3801 H         1 <0>         0.0673
     30 H13        -4.6982   -3.6339   -4.0098 H         1 <0>         0.0727
     31 H14        -3.3269   -4.4321   -4.8221 H         1 <0>         0.0681
     32 H15        -4.5683   -5.4598   -2.2293 H         1 <0>         0.0687
     33 H16        -5.0591   -6.0332   -3.8441 H         1 <0>         0.0746
     34 H17        -2.8111   -6.8167   -4.3336 H         1 <0>         0.0834
     35 H18        -3.2773   -7.4516   -2.7405 H         1 <0>         0.0812
     36 H19         2.0888    0.9838   -2.4219 H         1 <0>         0.4423
     37 H20         2.8201   -0.4316   -2.0015 H         1 <0>         0.4430
     38 H21         2.0335   -0.3073   -3.4440 H         1 <0>         0.4418
@<TRIPOS>BOND
     1    1    2 1
     2    1   19 1
     3    1   20 1
     4    1   21 1
     5    2    3 1
     6    2   22 1
     7    2   23 1
     8    3    4 1
     9    3    5 1
    10    3   18 1
    11    5    6 2
    12    5    7 am
    13    7    8 1
    14    7   24 1
    15    8   13 ar
    16    8    9 ar
    17    9   10 ar
    18    9   25 1
    19   10   11 ar
    20   10   26 1
    21   11   12 ar
    22   11   27 1
    23   12   17 1
    24   12   13 ar
    25   13   14 1
    26   14   15 1
    27   14   28 1
    28   14   29 1
    29   15   16 1
    30   15   30 1
    31   15   31 1
    32   16   17 1
    33   16   32 1
    34   16   33 1
    35   17   34 1
    36   17   35 1
    37   18   36 1
    38   18   37 1
    39   18   38 1
@<TRIPOS>MOLECULE
ZINC41267060
   39    40     0     0     0
SMALL
USER_CHARGES

@<TRIPOS>ATOM
      1 C1         -0.1357    1.6785    0.1746 C.3       1 <0>        -0.1175
      2 C2          0.0890    0.1885    0.1521 C.ar      1 <0>        -0.1029
      3 C3          0.3193   -0.4581   -1.0484 C.ar      1 <0>        -0.0687
      4 C4          0.5228   -1.8226   -1.0681 C.ar      1 <0>        -0.1004
      5 C5          0.4985   -2.5513    0.1171 C.ar      1 <0>         0.1591
      6 C6          0.2714   -1.9010    1.3171 C.ar      1 <0>        -0.2084
      7 C7          0.0706   -0.5306    1.3310 C.ar      1 <0>        -0.0943
      8 C8          0.2482   -2.6509    2.6249 C.3       1 <0>         0.1699
      9 C9          0.0561   -4.1460    2.3587 C.3       1 <0>        -0.1572
     10 C10         1.0442   -4.5717    1.2652 C.3       1 <0>         0.1239
     11 O1          0.6979   -3.8936    0.0567 O.3       1 <0>        -0.2983
     12 C11         2.4670   -4.1917    1.6799 C.3       1 <0>        -0.1792
     13 C12         0.9556   -6.0841    1.0510 C.3       1 <0>        -0.1463
     14 C13        -0.9055   -2.1350    3.4872 C.3       1 <0>        -0.0343
     15 N1         -0.9702   -2.9102    4.7334 N.4       1 <0>        -0.6340
     16 O2          1.4837   -2.4453    3.3128 O.3       1 <0>        -0.5384
     17 C14         0.7718   -2.5260   -2.3773 C.3       1 <0>        -0.1143
     18 H1          0.8210    2.1886    0.2877 H         1 <0>         0.0751
     19 H2         -0.6049    1.9893   -0.7589 H         1 <0>         0.0727
     20 H3         -0.7856    1.9354    1.0111 H         1 <0>         0.0664
     21 H4          0.3394    0.1045   -1.9701 H         1 <0>         0.1375
     22 H5         -0.1055   -0.0227    2.2676 H         1 <0>         0.1216
     23 H6          0.2523   -4.7097    3.2708 H         1 <0>         0.0939
     24 H7         -0.9645   -4.3314    2.0240 H         1 <0>         0.1031
     25 H8          2.7206   -4.6960    2.6124 H         1 <0>         0.0730
     26 H9          3.1660   -4.4957    0.9007 H         1 <0>         0.0655
     27 H10         2.5281   -3.1127    1.8221 H         1 <0>         0.0866
     28 H11        -0.0568   -6.3492    0.7465 H         1 <0>         0.0696
     29 H12         1.6588   -6.3827    0.2736 H         1 <0>         0.0780
     30 H13         1.2017   -6.5976    1.9804 H         1 <0>         0.0818
     31 H14        -0.7418   -1.0832    3.7217 H         1 <0>         0.1426
     32 H15        -1.8433   -2.2440    2.9424 H         1 <0>         0.1481
     33 H16        -1.2140   -3.8663    4.5224 H         1 <0>         0.4345
     34 H17        -0.0716   -2.8856    5.1917 H         1 <0>         0.4391
     35 H18         1.6702   -1.5189    3.5180 H         1 <0>         0.3897
     36 H19         1.8424   -2.5465   -2.5810 H         1 <0>         0.0752
     37 H20         0.3934   -3.5466   -2.3191 H         1 <0>         0.0750
     38 H21         0.2596   -1.9938   -3.1789 H         1 <0>         0.0719
     39 H22        -1.6692   -2.5111    5.3418 H         1 <0>         0.4404
@<TRIPOS>BOND
     1    1    2 1
     2    1   18 1
     3    1   19 1
     4    1   20 1
     5    2    7 ar
     6    2    3 ar
     7    3    4 ar
     8    3   21 1
     9    4    5 ar
    10    4   17 1
    11    5   11 1
    12    5    6 ar
    13    6    7 ar
    14    6    8 1
    15    7   22 1
    16    8    9 1
    17    8   14 1
    18    8   16 1
    19    9   10 1
    20    9   23 1
    21    9   24 1
    22   10   11 1
    23   10   12 1
    24   10   13 1
    25   12   25 1
    26   12   26 1
    27   12   27 1
    28   13   28 1
    29   13   29 1
    30   13   30 1
    31   14   15 1
    32   14   31 1
    33   14   32 1
    34   15   33 1
    35   15   34 1
    36   15   39 1
    37   16   35 1
    38   17   36 1
    39   17   37 1
    40   17   38 1
@<TRIPOS>MOLECULE
ZINC52277206
   41    42     0     0     0
SMALL
USER_CHARGES

@<TRIPOS>ATOM
      1 C1          1.8604    1.5449    4.5417 C.3       1 <0>        -0.1290
      2 C2          2.8811    0.7941    3.6841 C.3       1 <0>        -0.1492
      3 H1          3.7721    0.4485    4.2083 H         1 <0>         0.1093
      4 C3          3.0453    1.2391    2.2295 C.3       1 <0>        -0.1837
      5 C4          2.3434   -0.0826    2.5513 C.3       1 <0>         0.0618
      6 H2          1.2625   -0.1245    2.4170 H         1 <0>         0.1435
      7 N1          3.0658   -1.3219    2.2539 N.am      1 <0>        -0.6912
      8 C5          2.4239   -2.3522    1.6683 C.2       1 <0>         0.5126
      9 O1          1.2305   -2.2851    1.4629 O.2       1 <0>        -0.5172
     10 C6          3.1890   -3.5876    1.2689 C.3       1 <0>        -0.1018
     11 C7          2.2569   -4.7682    1.2281 C.3       1 <0>        -0.1078
     12 C8          1.0371   -4.5885    2.1518 C.3       1 <0>        -0.1231
     13 C9          1.4050   -3.9692    3.5137 C.3       1 <0>        -0.1370
     14 C10         2.6766   -4.5398    4.0810 C.3       1 <0>        -0.1214
     15 C11         3.8493   -3.6256    3.6712 C.3       1 <0>        -0.1503
     16 C12         4.2937   -3.8711    2.3072 C.3       1 <0>        -0.1052
     17 C13         3.8202   -3.3781   -0.1090 C.3       1 <0>         0.0057
     18 N2          2.7787   -2.9951   -1.0716 N.4       1 <0>        -0.6396
     19 H3          1.1947    0.8292    5.0241 H         1 <0>         0.0648
     20 H4          2.3821    2.1257    5.3023 H         1 <0>         0.0694
     21 H5          1.2773    2.2145    3.9096 H         1 <0>         0.0623
     22 H6          2.4261    2.0668    1.8835 H         1 <0>         0.1092
     23 H7          4.0442    1.1860    1.7966 H         1 <0>         0.0983
     24 H8          4.0062   -1.4010    2.4784 H         1 <0>         0.4076
     25 H9          1.9072   -4.9062    0.2050 H         1 <0>         0.0566
     26 H10         2.8035   -5.6598    1.5352 H         1 <0>         0.0906
     27 H11         0.3128   -3.9422    1.6560 H         1 <0>         0.0932
     28 H12         0.5778   -5.5624    2.3211 H         1 <0>         0.0647
     29 H13         1.5255   -2.8929    3.3907 H         1 <0>         0.0711
     30 H14         0.5919   -4.1531    4.2160 H         1 <0>         0.0656
     31 H15         2.6066   -4.5807    5.1680 H         1 <0>         0.0706
     32 H16         2.8374   -5.5420    3.6837 H         1 <0>         0.0691
     33 H17         3.5334   -2.5860    3.7578 H         1 <0>         0.0759
     34 H18         4.6843   -3.7966    4.3507 H         1 <0>         0.0800
     35 H19         4.6025   -4.9127    2.2186 H         1 <0>         0.0922
     36 H20         5.1505   -3.2317    2.0946 H         1 <0>         0.0770
     37 H21         4.5683   -2.5876   -0.0495 H         1 <0>         0.1405
     38 H22         4.2945   -4.3034   -0.4358 H         1 <0>         0.1519
     39 H23         3.2052   -2.7776   -1.9598 H         1 <0>         0.4411
     40 H24         2.1306   -3.7597   -1.1879 H         1 <0>         0.4372
     41 H25         2.2848   -2.1850   -0.7282 H         1 <0>         0.4348
@<TRIPOS>BOND
     1    1    2 1
     2    1   19 1
     3    1   20 1
     4    1   21 1
     5    2    3 1
     6    2    5 1
     7    2    4 1
     8    4    5 1
     9    4   22 1
    10    4   23 1
    11    5    6 1
    12    5    7 1
    13    7    8 am
    14    7   24 1
    15    8    9 2
    16    8   10 1
    17   10   16 1
    18   10   11 1
    19   10   17 1
    20   11   12 1
    21   11   25 1
    22   11   26 1
    23   12   13 1
    24   12   27 1
    25   12   28 1
    26   13   14 1
    27   13   29 1
    28   13   30 1
    29   14   15 1
    30   14   31 1
    31   14   32 1
    32   15   16 1
    33   15   33 1
    34   15   34 1
    35   16   35 1
    36   16   36 1
    37   17   18 1
    38   17   37 1
    39   17   38 1
    40   18   39 1
    41   18   40 1
    42   18   41 1
@<TRIPOS>MOLECULE
ZINC55122265
   40    40     0     0     0
SMALL
USER_CHARGES

@<TRIPOS>ATOM
      1 C1         -0.0187    1.5258    0.0104 C.3       1 <0>        -0.1675
      2 C2          0.0021   -0.0041    0.0020 C.3       1 <0>        -0.1251
      3 H1         -1.0205   -0.3814    0.0098 H         1 <0>         0.1232
      4 C3          0.7182   -0.4975   -1.2568 C.3       1 <0>        -0.1126
      5 C4          0.7390   -2.0273   -1.2652 C.3       1 <0>        -0.1340
      6 C5          1.4790   -2.5342   -0.0257 C.3       1 <0>        -0.1104
      7 C6          0.7628   -2.0407    1.2331 C.3       1 <0>        -0.1328
      8 H2          1.2900   -2.4018    2.1162 H         1 <0>         0.1236
      9 C7          0.7421   -0.5109    1.2415 C.3       1 <0>         0.0548
     10 H3          1.7647   -0.1336    1.2338 H         1 <0>         0.1486
     11 N1          0.0545   -0.0372    2.4502 N.4       1 <0>        -0.6390
     12 C8         -0.6510   -2.5624    1.2438 C.2       1 <0>         0.5137
     13 O1         -1.5834   -1.7869    1.2569 O.2       1 <0>        -0.5543
     14 N2         -0.8793   -3.8906    1.2389 N.am      1 <0>        -0.7040
     15 C9         -2.2537   -4.3977    1.2493 C.3       1 <0>         0.1160
     16 C10        -2.2329   -5.9276    1.2409 C.3       1 <0>        -0.1097
     17 C11        -1.6040   -6.4362    2.5396 C.3       1 <0>        -0.1524
     18 C12        -3.6640   -6.4564    1.1260 C.3       1 <0>        -0.1496
     19 H4          1.0039    1.9031    0.0027 H         1 <0>         0.0703
     20 H5         -0.5459    1.8868   -0.8726 H         1 <0>         0.0842
     21 H6         -0.5289    1.8773    0.9072 H         1 <0>         0.0522
     22 H7          0.1910   -0.1364   -2.1398 H         1 <0>         0.0858
     23 H8          1.7408   -0.1202   -1.2645 H         1 <0>         0.0758
     24 H9         -0.2836   -2.4046   -1.2575 H         1 <0>         0.0685
     25 H10         1.2492   -2.3788   -2.1620 H         1 <0>         0.0856
     26 H11         1.4937   -3.6240   -0.0317 H         1 <0>         0.0878
     27 H12         2.5015   -2.1569   -0.0334 H         1 <0>         0.0927
     28 H13        -0.8921   -0.3864    2.4573 H         1 <0>         0.4383
     29 H14         0.5425   -0.3714    3.2676 H         1 <0>         0.4290
     30 H15        -0.1335   -4.5109    1.2284 H         1 <0>         0.4088
     31 H16        -2.7639   -4.0462    2.1461 H         1 <0>         0.0771
     32 H17        -2.7808   -4.0366    0.3662 H         1 <0>         0.0776
     33 H18        -1.6467   -6.2783    0.3915 H         1 <0>         0.0798
     34 H19        -0.5844   -6.0595    2.6214 H         1 <0>         0.0504
     35 H20        -2.1902   -6.0855    3.3889 H         1 <0>         0.0597
     36 H21        -1.5892   -7.5261    2.5336 H         1 <0>         0.0659
     37 H22        -4.1121   -6.0940    0.2007 H         1 <0>         0.0609
     38 H23        -3.6492   -7.5463    1.1200 H         1 <0>         0.0672
     39 H24        -4.2503   -6.1056    1.9753 H         1 <0>         0.0607
     40 H25         0.0408    0.9717    2.4557 H         1 <0>         0.4332
@<TRIPOS>BOND
     1    1    2 1
     2    1   19 1
     3    1   20 1
     4    1   21 1
     5    2    3 1
     6    2    9 1
     7    2    4 1
     8    4    5 1
     9    4   22 1
    10    4   23 1
    11    5    6 1
    12    5   24 1
    13    5   25 1
    14    6    7 1
    15    6   26 1
    16    6   27 1
    17    7    8 1
    18    7    9 1
    19    7   12 1
    20    9   10 1
    21    9   11 1
    22   11   28 1
    23   11   29 1
    24   11   40 1
    25   12   13 2
    26   12   14 am
    27   14   15 1
    28   14   30 1
    29   15   16 1
    30   15   31 1
    31   15   32 1
    32   16   17 1
    33   16   18 1
    34   16   33 1
    35   17   34 1
    36   17   35 1
    37   17   36 1
    38   18   37 1
    39   18   38 1
    40   18   39 1
@<TRIPOS>MOLECULE
ZINC62200786
   38    39     0     0     0
SMALL
USER_CHARGES

@<TRIPOS>ATOM
      1 C1         -0.0184    1.5028    0.0103 C.3       1 <0>        -0.1204
      2 C2          0.0021   -0.0041    0.0020 C.ar      1 <0>        -0.0887
      3 C3          0.0058   -0.6908   -1.1985 C.ar      1 <0>        -0.1048
      4 C4          0.0245   -2.0700   -1.2130 C.ar      1 <0>        -0.1494
      5 C5          0.0402   -2.7821   -0.0151 C.ar      1 <0>         0.1562
      6 C6          0.0367   -2.0809    1.1839 C.ar      1 <0>        -0.1121
      7 C7          0.0229   -0.7042    1.1956 C.ar      1 <0>        -0.0483
      8 C8          0.0564   -3.1180    2.2831 C.3       1 <0>        -0.0566
      9 C9          0.0706   -4.4385    1.5429 C.2       1 <0>         0.5344
     10 O1          0.0885   -5.5439    2.0418 O.2       1 <0>        -0.4735
     11 N1          0.0602   -4.1557    0.2294 N.am      1 <0>        -0.6654
     12 C10         1.3164   -2.9690    3.1382 C.3       1 <0>        -0.1321
     13 C11        -1.1985   -3.0033    3.1508 C.3       1 <0>        -0.1295
     14 C12         0.0275   -2.8082   -2.5268 C.3       1 <0>        -0.0988
     15 C13        -1.4066   -3.1872   -2.9021 C.3       1 <0>         0.0298
     16 H1         -1.8581   -3.7526   -2.0869 H         1 <0>         0.1377
     17 C14        -1.3927   -4.0433   -4.1700 C.3       1 <0>        -0.1850
     18 N2         -2.1882   -1.9671   -3.1436 N.4       1 <0>        -0.6363
     19 H2          1.0042    1.8801    0.0026 H         1 <0>         0.0796
     20 H3         -0.5455    1.8639   -0.8728 H         1 <0>         0.0696
     21 H4         -0.5286    1.8543    0.9071 H         1 <0>         0.0747
     22 H5         -0.0063   -0.1442   -2.1298 H         1 <0>         0.1327
     23 H6          0.0242   -0.1714    2.1350 H         1 <0>         0.1381
     24 H7          0.0658   -4.8291   -0.4687 H         1 <0>         0.4114
     25 H8          1.3352   -1.9763    3.5878 H         1 <0>         0.0779
     26 H9          1.3133   -3.7240    3.9244 H         1 <0>         0.0782
     27 H10         2.1984   -3.1008    2.5115 H         1 <0>         0.0625
     28 H11        -2.0829   -3.1590    2.5330 H         1 <0>         0.0594
     29 H12        -1.1670   -3.7577    3.9369 H         1 <0>         0.0781
     30 H13        -1.2398   -2.0113    3.6007 H         1 <0>         0.0775
     31 H14         0.4489   -2.1684   -3.3021 H         1 <0>         0.1053
     32 H15         0.6298   -3.7120   -2.4344 H         1 <0>         0.1147
     33 H16        -0.8127   -4.9486   -3.9908 H         1 <0>         0.1073
     34 H17        -2.4143   -4.3133   -4.4374 H         1 <0>         0.0858
     35 H18        -0.9411   -3.4780   -4.9852 H         1 <0>         0.0856
     36 H19        -1.7702   -1.4438   -3.8982 H         1 <0>         0.4330
     37 H20        -3.1340   -2.2170   -3.3911 H         1 <0>         0.4370
     38 H21        -2.1974   -1.4025   -2.3074 H         1 <0>         0.4344
@<TRIPOS>BOND
     1    1    2 1
     2    1   19 1
     3    1   20 1
     4    1   21 1
     5    2    7 ar
     6    2    3 ar
     7    3    4 ar
     8    3   22 1
     9    4    5 ar
    10    4   14 1
    11    5   11 1
    12    5    6 ar
    13    6    7 ar
    14    6    8 1
    15    7   23 1
    16    8    9 1
    17    8   12 1
    18    8   13 1
    19    9   10 2
    20    9   11 am
    21   11   24 1
    22   12   25 1
    23   12   26 1
    24   12   27 1
    25   13   28 1
    26   13   29 1
    27   13   30 1
    28   14   15 1
    29   14   31 1
    30   14   32 1
    31   15   16 1
    32   15   17 1
    33   15   18 1
    34   17   33 1
    35   17   34 1
    36   17   35 1
    37   18   36 1
    38   18   37 1
    39   18   38 1
@<TRIPOS>MOLECULE
ZINC06193776
   64    68     0     0     0
SMALL
USER_CHARGES
3-[(benzyl-ethyl-amino)-(1-cyclopentyltetrazol-5-yl)-methyl]-7-methyl-1H-quinolin-2-one
@<TRIPOS>ATOM
      1 C1          3.0374   -1.3324   -2.7738 C.3       1 <0>        -0.1857
      2 C2          3.2623   -1.3971   -1.2618 C.3       1 <0>        -0.0243
      3 C3          4.5667   -0.3993    0.5175 C.3       1 <0>         0.0428
      4 C4          3.5816    0.6911    0.8515 C.ar      1 <0>        -0.1586
      5 C5          2.3265    0.3656    1.3310 C.ar      1 <0>        -0.0931
      6 C6          1.4227    1.3658    1.6369 C.ar      1 <0>        -0.1132
      7 C7          1.7740    2.6915    1.4634 C.ar      1 <0>        -0.0829
      8 C8          3.0291    3.0170    0.9844 C.ar      1 <0>        -0.1119
      9 C9          3.9328    2.0168    0.6779 C.ar      1 <0>        -0.0910
     10 C10         5.6811   -1.4576   -1.3536 C.3       1 <0>         0.2118
     11 H1          6.5814   -1.0096   -0.9328 H         1 <0>         0.1585
     12 C11         5.7669   -1.4393   -2.8580 C.2       1 <0>        -0.2801
     13 C12         5.8503   -2.6059   -3.5441 C.2       1 <0>         0.0831
     14 C13         5.9323   -2.5537   -5.0050 C.ar      1 <0>        -0.1589
     15 C14         6.0197   -3.7236   -5.7669 C.ar      1 <0>        -0.0342
     16 C15         6.0945   -3.6409   -7.1284 C.ar      1 <0>        -0.1416
     17 C16         6.0845   -2.4060   -7.7628 C.ar      1 <0>         0.0038
     18 C17         5.9987   -1.2406   -7.0323 C.ar      1 <0>        -0.1687
     19 C18         5.9220   -1.2999   -5.6445 C.ar      1 <0>         0.2034
     20 N1          5.8348   -0.1501   -4.8890 N.am      1 <0>        -0.6142
     21 H2          5.8312    0.7400   -5.3448 H         1 <0>         0.4361
     22 C19         5.7545   -0.2082   -3.5481 C.2       1 <0>         0.5607
     23 O1          5.6739    0.8285   -2.9122 O.2       1 <0>        -0.5585
     24 C20         6.1680   -2.3393   -9.2660 C.3       1 <0>        -0.1326
     25 C21         5.5574   -2.8811   -0.8747 C.2       1 <0>         0.1143
     26 N2          4.6617   -3.7595   -1.2545 N.2       1 <0>        -0.2703
     27 N3          4.8890   -4.8586   -0.6218 N.2       1 <0>        -0.0520
     28 N4          5.9016   -4.7017    0.1576 N.2       1 <0>        -0.0430
     29 N5          6.3416   -3.4956    0.0303 N.pl3     1 <0>        -0.2660
     30 C22         7.4805   -2.9056    0.7381 C.3       1 <0>         0.1203
     31 C23         8.7570   -3.7268    0.4625 C.3       1 <0>        -0.1341
     32 C24         9.5216   -3.7028    1.8102 C.3       1 <0>        -0.1224
     33 C25         8.3813   -3.8111    2.8529 C.3       1 <0>        -0.1248
     34 C26         7.2418   -2.9587    2.2573 C.3       1 <0>        -0.1343
     35 H3          3.1739   -0.3072   -3.1178 H         1 <0>         0.0695
     36 H4          3.7540   -1.9825   -3.2758 H         1 <0>         0.0852
     37 H5          2.0243   -1.6615   -3.0048 H         1 <0>         0.1042
     38 H6          3.3389   -2.4388   -0.9501 H         1 <0>         0.1469
     39 H7          2.4241   -0.9252   -0.7492 H         1 <0>         0.1292
     40 H8          5.5731   -0.0723    0.7788 H         1 <0>         0.1338
     41 H9          4.3187   -1.2983    1.0818 H         1 <0>         0.1281
     42 H10         2.0520   -0.6701    1.4662 H         1 <0>         0.1298
     43 H11         0.4421    1.1115    2.0112 H         1 <0>         0.1367
     44 H12         1.0661    3.4728    1.6978 H         1 <0>         0.1364
     45 H13         3.3034    4.0527    0.8485 H         1 <0>         0.1371
     46 H14         4.9132    2.2710    0.3030 H         1 <0>         0.1329
     47 H15         5.8557   -3.5526   -3.0244 H         1 <0>         0.1514
     48 H16         6.0276   -4.6880   -5.2809 H         1 <0>         0.1429
     49 H17         6.1623   -4.5442   -7.7165 H         1 <0>         0.1423
     50 H18         5.9917   -0.2849   -7.5352 H         1 <0>         0.1444
     51 H19         5.1629   -2.3616   -9.6871 H         1 <0>         0.0881
     52 H20         6.6654   -1.4156   -9.5616 H         1 <0>         0.0782
     53 H21         6.7362   -3.1925   -9.6365 H         1 <0>         0.0811
     54 H22         7.6243   -1.8734    0.4186 H         1 <0>         0.1218
     55 H23         8.5005   -4.7500    0.1879 H         1 <0>         0.0915
     56 H24         9.3505   -3.2576   -0.3221 H         1 <0>         0.0880
     57 H25        10.0654   -2.7655    1.9284 H         1 <0>         0.0797
     58 H26        10.1970   -4.5548    1.8866 H         1 <0>         0.0868
     59 H27         8.7014   -3.4036    3.8119 H         1 <0>         0.0836
     60 H28         8.0639   -4.8478    2.9647 H         1 <0>         0.0797
     61 H29         7.2706   -1.9524    2.6752 H         1 <0>         0.0928
     62 H30         6.2786   -3.4235    2.4679 H         1 <0>         0.0830
     63 N6          4.5049   -0.6664   -0.9350 N.4       1 <0>        -0.3879
     64 H31         4.5081    0.2281   -1.4390 H         1 <0>         0.4446
@<TRIPOS>BOND
     1    1    2 1
     2    1   35 1
     3    1   36 1
     4    1   37 1
     5    2   38 1
     6    2   39 1
     7    2   63 1
     8    3    4 1
     9    3   40 1
    10    3   41 1
    11    3   63 1
    12    4    9 ar
    13    4    5 ar
    14    5    6 ar
    15    5   42 1
    16    6    7 ar
    17    6   43 1
    18    7    8 ar
    19    7   44 1
    20    8    9 ar
    21    8   45 1
    22    9   46 1
    23   10   11 1
    24   10   12 1
    25   10   25 1
    26   10   63 1
    27   12   22 1
    28   12   13 2
    29   13   14 1
    30   13   47 1
    31   14   19 ar
    32   14   15 ar
    33   15   16 ar
    34   15   48 1
    35   16   17 ar
    36   16   49 1
    37   17   18 ar
    38   17   24 1
    39   18   19 ar
    40   18   50 1
    41   19   20 1
    42   20   21 1
    43   20   22 am
    44   22   23 2
    45   24   51 1
    46   24   52 1
    47   24   53 1
    48   25   29 1
    49   25   26 2
    50   26   27 1
    51   27   28 2
    52   28   29 1
    53   29   30 1
    54   30   34 1
    55   30   31 1
    56   30   54 1
    57   31   32 1
    58   31   55 1
    59   31   56 1
    60   32   33 1
    61   32   57 1
    62   32   58 1
    63   33   34 1
    64   33   59 1
    65   33   60 1
    66   34   61 1
    67   34   62 1
    68   63   64 1
@<TRIPOS>MOLECULE
ZINC12239268
   61    64     0     0     0
SMALL
USER_CHARGES
3-isopropyl-2-oxo-N-[1-(pyrrolidin-1-ylmethyl)cyclohexyl]-1,3-benzoxazole-6-sulfonamide
@<TRIPOS>ATOM
      1 C1          1.1071   -0.7795   -9.6257 C.3       1 <0>        -0.1721
      2 C2          0.0157   -0.7044   -8.5561 C.3       1 <0>         0.1518
      3 C3         -1.2401   -1.4202   -9.0576 C.3       1 <0>        -0.1768
      4 N1          0.4889   -1.3503   -7.3293 N.am      1 <0>        -0.5400
      5 C4          0.6265   -0.7466   -6.0796 C.ar      1 <0>         0.1394
      6 C5          0.3893    0.5361   -5.6110 C.ar      1 <0>        -0.1181
      7 C6          0.6276    0.8379   -4.2843 C.ar      1 <0>        -0.0091
      8 C7          1.1015   -0.1366   -3.4232 C.ar      1 <0>        -0.6994
      9 C8          1.3402   -1.4170   -3.8831 C.ar      1 <0>         0.0086
     10 C9          1.1100   -1.7276   -5.2142 C.ar      1 <0>         0.0185
     11 O1          1.2415   -2.8693   -5.9331 O.3       1 <0>        -0.2302
     12 C10         0.8708   -2.6366   -7.2020 C.2       1 <0>         0.6354
     13 O2          0.8785   -3.4587   -8.0979 O.2       1 <0>        -0.4516
     14 S1          1.4024    0.2582   -1.7326 S.o2      1 <0>         2.6867
     15 O3          0.6856    1.4547   -1.4612 O.2       1 <0>        -0.9190
     16 O4          1.1961   -0.9377   -0.9933 O.2       1 <0>        -0.9312
     17 N2          3.0106    0.6282   -1.5949 N.pl3     1 <0>        -1.1197
     18 C11         3.5723    1.7477   -2.3548 C.3       1 <0>         0.1660
     19 C12         4.9276    2.1377   -1.7616 C.3       1 <0>        -0.1292
     20 C13         4.7442    2.5540   -0.3008 C.3       1 <0>        -0.1189
     21 C14         3.7921    3.7494   -0.2268 C.3       1 <0>        -0.1300
     22 C15         2.4368    3.3594   -0.8200 C.3       1 <0>        -0.1108
     23 C16         2.6202    2.9431   -2.2808 C.3       1 <0>        -0.1406
     24 C17         3.7557    1.3314   -3.8156 C.3       1 <0>        -0.0365
     25 C18         4.4605   -0.8784   -3.0754 C.3       1 <0>        -0.0183
     26 C19         5.3391   -2.0018   -3.6808 C.3       1 <0>        -0.1482
     27 C20         5.3048   -1.6895   -5.1945 C.3       1 <0>        -0.1474
     28 C21         4.9365   -0.1973   -5.2892 C.3       1 <0>        -0.0124
     29 H1          2.0017   -0.2695   -9.2683 H         1 <0>         0.0602
     30 H2          1.3422   -1.8236   -9.8322 H         1 <0>         0.0774
     31 H3          0.7550   -0.2989  -10.5384 H         1 <0>         0.0889
     32 H4         -0.2194    0.3398   -8.3495 H         1 <0>         0.1087
     33 H5         -2.0176   -1.3667   -8.2956 H         1 <0>         0.0655
     34 H6         -1.5922   -0.9396   -9.9704 H         1 <0>         0.0890
     35 H7         -1.0050   -2.4644   -9.2642 H         1 <0>         0.0775
     36 H8          0.0189    1.2975   -6.2814 H         1 <0>         0.1551
     37 H9          0.4432    1.8369   -3.9178 H         1 <0>         0.1666
     38 H10         1.7100   -2.1740   -3.2073 H         1 <0>         0.1614
     39 H11         3.5807    0.1038   -1.0111 H         1 <0>         0.4263
     40 H12         5.6059    1.2861   -1.8143 H         1 <0>         0.0643
     41 H13         5.3456    2.9706   -2.3270 H         1 <0>         0.0975
     42 H14         5.7098    2.8319    0.1218 H         1 <0>         0.0772
     43 H15         4.3263    1.7211    0.2646 H         1 <0>         0.0705
     44 H16         4.2101    4.5823   -0.7922 H         1 <0>         0.0673
     45 H17         3.6615    4.0459    0.8139 H         1 <0>         0.0735
     46 H18         1.7585    4.2110   -0.7673 H         1 <0>         0.0796
     47 H19         2.0189    2.5264   -0.2546 H         1 <0>         0.0768
     48 H20         3.0381    3.7760   -2.8462 H         1 <0>         0.0934
     49 H21         1.6547    2.6652   -2.7034 H         1 <0>         0.0931
     50 H22         2.8184    0.9281   -4.1989 H         1 <0>         0.1315
     51 H23         4.0465    2.1996   -4.4071 H         1 <0>         0.1522
     52 H24         4.7223   -0.7057   -2.0315 H         1 <0>         0.1434
     53 H25         3.4027   -1.1229   -3.1724 H         1 <0>         0.1189
     54 H26         4.9058   -2.9814   -3.4791 H         1 <0>         0.1191
     55 H27         6.3580   -1.9432   -3.2979 H         1 <0>         0.1038
     56 H28         4.5479   -2.2981   -5.6893 H         1 <0>         0.1008
     57 H29         6.2839   -1.8665   -5.6396 H         1 <0>         0.1090
     58 H30         3.9912   -0.0810   -5.8191 H         1 <0>         0.1237
     59 H31         5.7254    0.3477   -5.8076 H         1 <0>         0.1383
     60 N3          4.8128    0.2801   -3.9112 N.4       1 <0>        -0.3883
     61 H32         5.7082    0.6737   -3.5989 H         1 <0>         0.4308
@<TRIPOS>BOND
     1    1    2 1
     2    1   29 1
     3    1   30 1
     4    1   31 1
     5    2    3 1
     6    2    4 1
     7    2   32 1
     8    3   33 1
     9    3   34 1
    10    3   35 1
    11    4   12 am
    12    4    5 1
    13    5   10 ar
    14    5    6 ar
    15    6    7 ar
    16    6   36 1
    17    7    8 ar
    18    7   37 1
    19    8    9 ar
    20    8   14 1
    21    9   10 ar
    22    9   38 1
    23   10   11 1
    24   11   12 1
    25   12   13 2
    26   14   15 2
    27   14   16 2
    28   14   17 1
    29   17   18 1
    30   17   39 1
    31   18   23 1
    32   18   19 1
    33   18   24 1
    34   19   20 1
    35   19   40 1
    36   19   41 1
    37   20   21 1
    38   20   42 1
    39   20   43 1
    40   21   22 1
    41   21   44 1
    42   21   45 1
    43   22   23 1
    44   22   46 1
    45   22   47 1
    46   23   48 1
    47   23   49 1
    48   24   50 1
    49   24   51 1
    50   24   60 1
    51   25   26 1
    52   25   52 1
    53   25   53 1
    54   25   60 1
    55   26   27 1
    56   26   54 1
    57   26   55 1
    58   27   28 1
    59   27   56 1
    60   27   57 1
    61   28   58 1
    62   28   59 1
    63   28   60 1
    64   60   61 1
@<TRIPOS>MOLECULE
ZINC12310012
   49    51     0     0     0
SMALL
USER_CHARGES
5-[(2,4-dichlorophenyl)methoxyimino]-6-isopropyl-1,3-dimethyl-8H-pyrido[3,2-e]pyrimidine-2,4-dione
@<TRIPOS>ATOM
      1 C1         -1.1342    7.4109   -2.4958 C.3       1 <0>        -0.1599
      2 C2         -1.4171    7.4050   -0.9922 C.3       1 <0>        -0.0447
      3 C3         -2.8024    7.9999   -0.7316 C.3       1 <0>        -0.1600
      4 C4         -1.3737    5.9890   -0.4784 C.ar      1 <0>        -0.1761
      5 C5         -2.4828    5.2325   -0.4569 C.ar      1 <0>         0.1941
      6 N1         -2.4707    3.9455    0.0104 N.ar      1 <0>        -0.5942
      7 H1         -3.4178    3.4326    0.2339 H         1 <0>         0.4757
      8 C6         -1.3131    3.2619    0.2135 C.ar      1 <0>         0.5106
      9 C7         -0.0995    3.9439    0.2304 C.ar      1 <0>        -0.3199
     10 C8         -0.1107    5.4028    0.0130 C.ar      1 <0>         0.4207
     11 N2          0.9497    6.1432    0.2444 N.pl3     1 <0>        -0.4811
     12 O1          1.9445    5.6931    1.1460 O.3       1 <0>        -0.0814
     13 C9          2.9836    6.6439    1.3870 C.3       1 <0>         0.0615
     14 C10         4.0331    6.0268    2.2752 C.ar      1 <0>        -0.0789
     15 C11         3.8291    4.7711    2.8163 C.ar      1 <0>        -0.0668
     16 C12         4.7935    4.2022    3.6264 C.ar      1 <0>        -0.1034
     17 C13         5.9591    4.8940    3.9054 C.ar      1 <0>        -0.0148
     18 C14         6.1612    6.1526    3.3689 C.ar      1 <0>        -0.0966
     19 C15         5.1979    6.7193    2.5534 C.ar      1 <0>        -0.0145
     20 Cl1         5.4505    8.2993    1.8800 Cl        1 <0>        -0.0449
     21 Cl2         7.1675    4.1819    4.9283 Cl        1 <0>        -0.0402
     22 C16         1.0993    3.2268    0.4499 C.2       1 <0>         0.5687
     23 O2          2.1719    3.8028    0.4708 O.2       1 <0>        -0.4534
     24 N3          1.0319    1.8903    0.6354 N.am      1 <0>        -0.5520
     25 C17        -0.1505    1.2514    0.6106 C.2       1 <0>         0.7050
     26 O3         -0.1738    0.0476    0.7786 O.2       1 <0>        -0.4921
     27 N4         -1.3086    1.9035    0.4000 N.am      1 <0>        -0.5286
     28 C18        -2.5705    1.1598    0.3758 C.3       1 <0>         0.0397
     29 C19         2.2618    1.1284    0.8659 C.3       1 <0>         0.0711
     30 H2         -0.1382    6.9832   -2.6832 H         1 <0>         0.0586
     31 H3         -1.1659    8.4445   -2.8708 H         1 <0>         0.0810
     32 H4         -1.8951    6.8092   -3.0144 H         1 <0>         0.0699
     33 H5         -0.6519    7.9940   -0.4653 H         1 <0>         0.0877
     34 H6         -3.0058    7.9957    0.3494 H         1 <0>         0.0694
     35 H7         -3.5633    7.3982   -1.2503 H         1 <0>         0.0666
     36 H8         -2.8340    9.0335   -1.1066 H         1 <0>         0.0817
     37 H9         -3.4105    5.6508   -0.8186 H         1 <0>         0.2112
     38 H10         3.4399    6.9387    0.4305 H         1 <0>         0.0989
     39 H11         2.5612    7.5315    1.8807 H         1 <0>         0.0958
     40 H12         2.9176    4.2327    2.6024 H         1 <0>         0.1443
     41 H13         4.6355    3.2194    4.0453 H         1 <0>         0.1450
     42 H14         7.0709    6.6927    3.5861 H         1 <0>         0.1534
     43 H15        -2.3695    0.0912    0.5422 H         1 <0>         0.1344
     44 H16        -3.0563    1.2936   -0.6020 H         1 <0>         0.1001
     45 H17        -3.2332    1.5362    1.1690 H         1 <0>         0.0973
     46 H18         2.0151    0.0642    0.9946 H         1 <0>         0.1108
     47 H19         2.7598    1.5017    1.7729 H         1 <0>         0.0891
     48 H20         2.9339    1.2473    0.0032 H         1 <0>         0.0911
     49 H21         1.0647    7.1128   -0.2623 H         1 <0>         0.4701
@<TRIPOS>BOND
     1    1    2 1
     2    1   30 1
     3    1   31 1
     4    1   32 1
     5    2    3 1
     6    2    4 1
     7    2   33 1
     8    3   34 1
     9    3   35 1
    10    3   36 1
    11    4   10 ar
    12    4    5 ar
    13    5    6 ar
    14    5   37 1
    15    6    7 1
    16    6    8 ar
    17    8   27 1
    18    8    9 ar
    19    9   10 ar
    20    9   22 1
    21   10   11 1
    22   11   12 1
    23   11   49 1
    24   12   13 1
    25   13   14 1
    26   13   38 1
    27   13   39 1
    28   14   19 ar
    29   14   15 ar
    30   15   16 ar
    31   15   40 1
    32   16   17 ar
    33   16   41 1
    34   17   18 ar
    35   17   21 1
    36   18   19 ar
    37   18   42 1
    38   19   20 1
    39   22   23 2
    40   22   24 am
    41   24   25 am
    42   24   29 1
    43   25   26 2
    44   25   27 am
    45   27   28 1
    46   28   43 1
    47   28   44 1
    48   28   45 1
    49   29   46 1
    50   29   47 1
    51   29   48 1
@<TRIPOS>MOLECULE
ZINC36032684
   67    70     0     0     0
SMALL
USER_CHARGES

@<TRIPOS>ATOM
      1 C1         -1.8474    1.0892    0.6714 C.3       1 <0>        -0.1560
      2 C2         -1.9215   -0.3416    0.1346 C.3       1 <0>        -0.1220
      3 C3         -3.2875   -0.5726   -0.5148 C.3       1 <0>        -0.1163
      4 H1         -4.0747   -0.3356    0.2009 H         1 <0>         0.0886
      5 C4         -3.4270    0.3285   -1.7434 C.3       1 <0>        -0.1730
      6 C5         -3.4089   -2.0373   -0.9401 C.3       1 <0>         0.1032
      7 N1         -4.4990   -2.1757   -1.9089 N.am      1 <0>        -0.6086
      8 C6         -5.8125   -2.2163   -1.6028 C.2       1 <0>         0.5167
      9 O1         -6.2824   -2.1496   -0.4867 O.2       1 <0>        -0.4365
     10 C7         -6.6005   -2.3589   -2.8868 C.3       1 <0>        -0.0057
     11 H2         -6.9317   -3.3893   -3.0164 H         1 <0>         0.1777
     12 N2         -5.6474   -1.9842   -3.9593 N.4       1 <0>        -0.5149
     13 C8         -4.3317   -2.2851   -3.3606 C.3       1 <0>         0.2877
     14 C9         -3.2964   -1.2747   -3.8511 C.3       1 <0>        -0.1885
     15 C10        -1.9435   -1.5750   -3.1973 C.3       1 <0>         0.0753
     16 N3         -1.5970   -2.9799   -3.4521 N.am      1 <0>        -0.6180
     17 C11        -2.5620   -4.0245   -3.0832 C.3       1 <0>         0.1024
     18 C12        -3.9096   -3.7038   -3.7383 C.3       1 <0>        -0.1605
     19 C13        -0.4158   -3.3043   -4.0143 C.2       1 <0>         0.5778
     20 O2          0.4006   -2.4366   -4.2570 O.2       1 <0>        -0.5020
     21 C14        -0.1134   -4.7129   -4.3355 C.ar      1 <0>        -0.1302
     22 C15        -0.0170   -5.6592   -3.3123 C.ar      1 <0>        -0.0801
     23 C16         0.2643   -6.9737   -3.6139 C.ar      1 <0>        -0.1006
     24 C17         0.4533   -7.3630   -4.9333 C.ar      1 <0>         0.0626
     25 C18         0.3589   -6.4225   -5.9599 C.ar      1 <0>         0.0361
     26 C19         0.0714   -5.1043   -5.6639 C.ar      1 <0>        -0.0582
     27 O3          0.5835   -7.0530   -7.1500 O.3       1 <0>        -0.3032
     28 C20         1.2181   -8.2998   -6.8098 C.3       1 <0>         0.2117
     29 O4          0.7358   -8.5788   -5.4823 O.3       1 <0>        -0.3011
     30 C21        -7.8015   -1.4110   -2.8830 C.3       1 <0>        -0.1252
     31 C22        -8.7982   -1.8548   -1.8104 C.3       1 <0>        -0.1036
     32 C23        -9.9415   -0.8416   -1.7261 C.3       1 <0>        -0.1502
     33 C24        -9.3612   -3.2299   -2.1750 C.3       1 <0>        -0.1569
     34 H3         -0.8742    1.2537    1.1340 H         1 <0>         0.0629
     35 H4         -1.9829    1.7929   -0.1499 H         1 <0>         0.0580
     36 H5         -2.6322    1.2403    1.4126 H         1 <0>         0.0579
     37 H6         -1.1366   -0.4927   -0.6066 H         1 <0>         0.0676
     38 H7         -1.7860   -1.0453    0.9559 H         1 <0>         0.0721
     39 H8         -2.5866    0.1581   -2.4163 H         1 <0>         0.0775
     40 H9         -4.3586    0.0971   -2.2598 H         1 <0>         0.0453
     41 H10        -3.4352    1.3723   -1.4294 H         1 <0>         0.0736
     42 H11        -2.4738   -2.3618   -1.3965 H         1 <0>         0.1215
     43 H12        -3.6194   -2.6532   -0.0658 H         1 <0>         0.1024
     44 H13        -5.8020   -2.5433   -4.7849 H         1 <0>         0.4477
     45 H14        -3.2011   -1.3486   -4.9344 H         1 <0>         0.1096
     46 H15        -3.6150   -0.2677   -3.5817 H         1 <0>         0.1346
     47 H16        -1.1789   -0.9266   -3.6251 H         1 <0>         0.1207
     48 H17        -2.0110   -1.4044   -2.1228 H         1 <0>         0.1204
     49 H18        -2.2055   -4.9924   -3.4356 H         1 <0>         0.1187
     50 H19        -2.6788   -4.0480   -1.9997 H         1 <0>         0.0897
     51 H20        -4.6613   -4.4119   -3.3895 H         1 <0>         0.1075
     52 H21        -3.8142   -3.7785   -4.8216 H         1 <0>         0.1117
     53 H22        -0.1633   -5.3604   -2.2848 H         1 <0>         0.1443
     54 H23         0.3384   -7.7037   -2.8215 H         1 <0>         0.1479
     55 H24        -0.0068   -4.3764   -6.4580 H         1 <0>         0.1422
     56 H25         0.9133   -9.0857   -7.5009 H         1 <0>         0.1410
     57 H26         2.3025   -8.1895   -6.8079 H         1 <0>         0.0941
     58 H27        -7.4635   -0.3973   -2.6678 H         1 <0>         0.0920
     59 H28        -8.2850   -1.4331   -3.8597 H         1 <0>         0.1014
     60 H29        -8.2926   -1.9131   -0.8465 H         1 <0>         0.1043
     61 H30       -10.4471   -0.7832   -2.6900 H         1 <0>         0.0591
     62 H31       -10.6515   -1.1578   -0.9619 H         1 <0>         0.0687
     63 H32        -9.5404    0.1381   -1.4663 H         1 <0>         0.0590
     64 H33        -8.5620   -3.9704   -2.1410 H         1 <0>         0.0496
     65 H34       -10.1406   -3.5036   -1.4640 H         1 <0>         0.0713
     66 H35        -9.7819   -3.1954   -3.1800 H         1 <0>         0.0606
     67 H36        -5.7208   -1.0010   -4.1737 H         1 <0>         0.4371
@<TRIPOS>BOND
     1    1    2 1
     2    1   34 1
     3    1   35 1
     4    1   36 1
     5    2    3 1
     6    2   37 1
     7    2   38 1
     8    3    4 1
     9    3    5 1
    10    3    6 1
    11    5   39 1
    12    5   40 1
    13    5   41 1
    14    6    7 1
    15    6   42 1
    16    6   43 1
    17    7   13 1
    18    7    8 am
    19    8    9 2
    20    8   10 1
    21   10   11 1
    22   10   12 1
    23   10   30 1
    24   12   13 1
    25   12   44 1
    26   12   67 1
    27   13   18 1
    28   13   14 1
    29   14   15 1
    30   14   45 1
    31   14   46 1
    32   15   16 1
    33   15   47 1
    34   15   48 1
    35   16   17 1
    36   16   19 am
    37   17   18 1
    38   17   49 1
    39   17   50 1
    40   18   51 1
    41   18   52 1
    42   19   20 2
    43   19   21 1
    44   21   26 ar
    45   21   22 ar
    46   22   23 ar
    47   22   53 1
    48   23   24 ar
    49   23   54 1
    50   24   29 1
    51   24   25 ar
    52   25   26 ar
    53   25   27 1
    54   26   55 1
    55   27   28 1
    56   28   29 1
    57   28   56 1
    58   28   57 1
    59   30   31 1
    60   30   58 1
    61   30   59 1
    62   31   32 1
    63   31   33 1
    64   31   60 1
    65   32   61 1
    66   32   62 1
    67   32   63 1
    68   33   64 1
    69   33   65 1
    70   33   66 1
@<TRIPOS>MOLECULE
ZINC63385312
   61    64     0     0     0
SMALL
USER_CHARGES

@<TRIPOS>ATOM
      1 C1         -0.0187    1.5258    0.0104 C.3       1 <0>        -0.1535
      2 C2          0.0021   -0.0041    0.0020 C.3       1 <0>        -0.0347
      3 H1          0.5125   -0.3544   -0.8951 H         1 <0>         0.1064
      4 C3         -1.4133   -0.5244    0.0088 C.ar      1 <0>        -0.1818
      5 C4         -2.1129   -0.5489   -1.1886 C.ar      1 <0>        -0.0409
      6 C5         -3.4130   -1.0105   -1.2320 C.ar      1 <0>        -0.2110
      7 C6         -4.0307   -1.4533   -0.0721 C.ar      1 <0>         0.1482
      8 C7         -3.3352   -1.4332    1.1293 C.ar      1 <0>         0.0500
      9 C8         -2.0209   -0.9706    1.1683 C.ar      1 <0>         0.1432
     10 O1         -1.3666   -0.9852    2.3625 O.3       1 <0>        -0.2863
     11 C9         -0.1784   -0.3526    2.4295 C.2       1 <0>         0.4917
     12 O2          0.1332    0.3086    3.3916 O.2       1 <0>        -0.4038
     13 C10         0.7466   -0.5098    1.2414 C.3       1 <0>        -0.1168
     14 H2          1.6495    0.0807    1.3970 H         1 <0>         0.1283
     15 C11         1.1137   -1.9841    1.0609 C.3       1 <0>        -0.1358
     16 C12         1.9509   -2.4398    2.2281 C.2       1 <0>         0.5056
     17 O3          2.2267   -1.6620    3.1169 O.2       1 <0>        -0.5034
     18 N1          2.3930   -3.7118    2.2844 N.am      1 <0>        -0.7423
     19 C13         3.2069   -4.1548    3.4191 C.3       1 <0>         0.1494
     20 H3          3.8487   -3.3372    3.7471 H         1 <0>         0.1020
     21 C14         2.2909   -4.5771    4.5696 C.3       1 <0>        -0.1692
     22 C15         4.0718   -5.3429    2.9934 C.3       1 <0>        -0.1014
     23 C16         5.0584   -4.8960    1.9455 C.2       1 <0>         0.0700
     24 C17         6.3380   -4.5067    2.1468 C.ar      1 <0>        -0.1706
     25 C18         7.1622   -4.3863    3.3554 C.ar      1 <0>        -0.0094
     26 C19         8.4398   -3.9582    3.2381 C.ar      1 <0>        -0.1524
     27 C20         8.9949   -3.6270    1.9943 C.ar      1 <0>         0.0572
     28 C21         8.3004   -3.7120    0.8400 C.ar      1 <0>        -0.2117
     29 C22         6.9478   -4.1513    0.8456 C.ar      1 <0>         0.3288
     30 N2          6.0791   -4.3146   -0.1226 N.pl3     1 <0>        -0.5887
     31 C23         4.8202   -4.7984    0.4552 C.3       1 <0>         0.0598
     32 O4         -3.9372   -1.8661    2.2701 O.3       1 <0>        -0.3096
     33 C24        -3.8018   -3.2524    2.5892 C.3       1 <0>         0.0366
     34 O5         -5.3129   -1.9050   -0.1112 O.3       1 <0>        -0.2987
     35 C25        -5.9655   -1.8959   -1.3824 C.3       1 <0>         0.0223
     36 H4          1.0039    1.9031    0.0027 H         1 <0>         0.0702
     37 H5         -0.5459    1.8868   -0.8726 H         1 <0>         0.0734
     38 H6         -0.5289    1.8773    0.9072 H         1 <0>         0.0582
     39 H7         -1.6364   -0.2043   -2.0944 H         1 <0>         0.1398
     40 H8         -3.9494   -1.0264   -2.1692 H         1 <0>         0.1435
     41 H9          0.2035   -2.5817    1.0113 H         1 <0>         0.1069
     42 H10         1.6799   -2.1071    0.1377 H         1 <0>         0.1131
     43 H11         2.1724   -4.3338    1.5736 H         1 <0>         0.3992
     44 H12         2.8965   -4.9068    5.4139 H         1 <0>         0.0765
     45 H13         1.6748   -3.7307    4.8729 H         1 <0>         0.0753
     46 H14         1.6491   -5.3948    4.2416 H         1 <0>         0.0672
     47 H15         4.6107   -5.7286    3.8588 H         1 <0>         0.1278
     48 H16         3.4355   -6.1268    2.5825 H         1 <0>         0.1187
     49 H17         6.7545   -4.6354    4.3239 H         1 <0>         0.1617
     50 H18         9.0480   -3.8688    4.1260 H         1 <0>         0.1587
     51 H19        10.0202   -3.2897    1.9582 H         1 <0>         0.1614
     52 H20         8.7744   -3.4445   -0.0929 H         1 <0>         0.1605
     53 H21         4.5705   -5.7788    0.0496 H         1 <0>         0.1742
     54 H22         4.0178   -4.0902    0.2486 H         1 <0>         0.1649
     55 H23        -4.2289   -3.8534    1.7865 H         1 <0>         0.0480
     56 H24        -2.7459   -3.4973    2.7042 H         1 <0>         0.0414
     57 H25        -4.3272   -3.4639    3.5205 H         1 <0>         0.0977
     58 H26        -6.0026   -0.8757   -1.7645 H         1 <0>         0.0617
     59 H27        -5.4119   -2.5250   -2.0795 H         1 <0>         0.0594
     60 H28        -6.9796   -2.2801   -1.2730 H         1 <0>         0.1080
     61 H29         6.2425   -4.1474   -1.0640 H         1 <0>         0.4553
@<TRIPOS>BOND
     1    1    2 1
     2    1   36 1
     3    1   37 1
     4    1   38 1
     5    2    3 1
     6    2   13 1
     7    2    4 1
     8    4    9 ar
     9    4    5 ar
    10    5    6 ar
    11    5   39 1
    12    6    7 ar
    13    6   40 1
    14    7    8 ar
    15    7   34 1
    16    8    9 ar
    17    8   32 1
    18    9   10 1
    19   10   11 1
    20   11   12 2
    21   11   13 1
    22   13   14 1
    23   13   15 1
    24   15   16 1
    25   15   41 1
    26   15   42 1
    27   16   17 2
    28   16   18 am
    29   18   19 1
    30   18   43 1
    31   19   20 1
    32   19   21 1
    33   19   22 1
    34   21   44 1
    35   21   45 1
    36   21   46 1
    37   22   23 1
    38   22   47 1
    39   22   48 1
    40   23   31 1
    41   23   24 2
    42   24   29 ar
    43   24   25 ar
    44   25   26 ar
    45   25   49 1
    46   26   27 ar
    47   26   50 1
    48   27   28 ar
    49   27   51 1
    50   28   29 ar
    51   28   52 1
    52   29   30 2
    53   30   31 1
    54   30   61 1
    55   31   53 1
    56   31   54 1
    57   32   33 1
    58   33   55 1
    59   33   56 1
    60   33   57 1
    61   34   35 1
    62   35   58 1
    63   35   59 1
    64   35   60 1
@<TRIPOS>MOLECULE
ZINC01423421
   39    42     0     0     0
SMALL
USER_CHARGES
4-(9H-fluoren-2-ylamino)-1,1-dioxo-thiolan-3-ol
@<TRIPOS>ATOM
      1 C1         -0.0126    1.0758    0.0080 C.ar      1 <0>        -0.1203
      2 C2          1.1766    1.7828    0.0004 C.ar      1 <0>        -0.1176
      3 C3          1.1654    3.1619    0.0070 C.ar      1 <0>        -0.1046
      4 C4         -0.0501    3.8492    0.0218 C.ar      1 <0>        -0.0424
      5 C5         -1.2415    3.1289    0.0298 C.ar      1 <0>        -0.1001
      6 C6         -1.2206    1.7502    0.0173 C.ar      1 <0>        -0.0995
      7 C7         -2.3750    4.1249    0.0453 C.3       1 <0>        -0.0438
      8 C8         -1.7308    5.4897    0.0456 C.ar      1 <0>        -0.0385
      9 C9         -0.3507    5.3021    0.0315 C.ar      1 <0>        -0.1177
     10 C10         0.4942    6.4148    0.0283 C.ar      1 <0>        -0.0431
     11 C11        -0.0378    7.6853    0.0389 C.ar      1 <0>        -0.2017
     12 C12        -1.4163    7.8658    0.0525 C.ar      1 <0>         0.2262
     13 C13        -2.2606    6.7611    0.0557 C.ar      1 <0>        -0.1751
     14 N1         -1.9520    9.1545    0.0632 N.pl3     1 <0>        -0.7182
     15 C14        -1.0617   10.3179    0.0602 C.3       1 <0>         0.1532
     16 H1         -0.2022   10.0949   -0.5719 H         1 <0>         0.1096
     17 C15        -0.5599   10.5584    1.5017 C.3       1 <0>        -0.5895
     18 S1         -0.5136   12.4027    1.5638 S.o2      1 <0>         2.3716
     19 O1          0.6910   12.8636    0.9672 O.2       1 <0>        -0.9216
     20 O2         -0.8662   12.8398    2.8691 O.2       1 <0>        -0.9266
     21 C16        -1.9234   12.7133    0.4135 C.3       1 <0>        -0.6170
     22 C17        -1.8099   11.5002   -0.5369 C.3       1 <0>         0.1046
     23 H2         -1.2925   11.8180   -1.4421 H         1 <0>         0.0921
     24 O3         -3.1269   11.0743   -0.8920 O.3       1 <0>        -0.5511
     25 H3          0.0021   -0.0041    0.0020 H         1 <0>         0.1257
     26 H4          2.1175    1.2526   -0.0111 H         1 <0>         0.1248
     27 H5          2.0960    3.7099    0.0011 H         1 <0>         0.1207
     28 H6         -2.1478    1.1964    0.0187 H         1 <0>         0.1233
     29 H7         -2.9773    3.9940    0.9443 H         1 <0>         0.0998
     30 H8         -2.9953    4.0029   -0.8426 H         1 <0>         0.0998
     31 H9          1.5656    6.2786    0.0171 H         1 <0>         0.1225
     32 H10         0.6177    8.5436    0.0364 H         1 <0>         0.1246
     33 H11        -3.3316    6.8999    0.0659 H         1 <0>         0.1243
     34 H12        -2.9138    9.2798    0.0726 H         1 <0>         0.4151
     35 H13        -1.2627   10.1593    2.2330 H         1 <0>         0.1494
     36 H14         0.4347   10.1365    1.6458 H         1 <0>         0.1484
     37 H15        -1.7882   13.6494   -0.1283 H         1 <0>         0.1479
     38 H16        -2.8737   12.7052    0.9472 H         1 <0>         0.1511
     39 H17        -3.6737   11.7702   -1.2817 H         1 <0>         0.3937
@<TRIPOS>BOND
     1    1    6 ar
     2    1    2 ar
     3    1   25 1
     4    2    3 ar
     5    2   26 1
     6    3    4 ar
     7    3   27 1
     8    4    9 1
     9    4    5 ar
    10    5    6 ar
    11    5    7 1
    12    6   28 1
    13    7    8 1
    14    7   29 1
    15    7   30 1
    16    8   13 ar
    17    8    9 ar
    18    9   10 ar
    19   10   11 ar
    20   10   31 1
    21   11   12 ar
    22   11   32 1
    23   12   13 ar
    24   12   14 1
    25   13   33 1
    26   14   15 1
    27   14   34 1
    28   15   16 1
    29   15   22 1
    30   15   17 1
    31   17   18 1
    32   17   35 1
    33   17   36 1
    34   18   19 2
    35   18   20 2
    36   18   21 1
    37   21   22 1
    38   21   37 1
    39   21   38 1
    40   22   23 1
    41   22   24 1
    42   24   39 1
@<TRIPOS>MOLECULE
ZINC20738461
   43    45     0     0     0
SMALL
USER_CHARGES
3-(2-cyanospiro[4H-naphthalene-3,1'-cyclohexane]-1-yl)-1-methyl-urea
@<TRIPOS>ATOM
      1 C1         -1.2215   -2.5797    2.9103 C.3       1 <0>         0.1069
      2 N1         -1.8839   -2.0915    1.6982 N.am      1 <0>        -0.7564
      3 C2         -1.9360   -0.7687    1.4450 C.2       1 <0>         0.7065
      4 O1         -1.4334    0.0192    2.2224 O.2       1 <0>        -0.5656
      5 N2         -2.5454   -0.3196    0.3300 N.am      1 <0>        -0.7127
      6 C3         -2.5078    1.0285    0.0156 C.2       1 <0>         0.2643
      7 C4         -3.6619    1.7298   -0.1319 C.2       1 <0>        -0.0857
      8 C5         -3.6330    3.1828   -0.5265 C.3       1 <0>         0.0129
      9 C6         -4.9294    3.8564   -0.0663 C.3       1 <0>        -0.1122
     10 C7         -4.9076    5.3316   -0.4704 C.3       1 <0>        -0.1210
     11 C8         -4.7925    5.4424   -1.9921 C.3       1 <0>        -0.1226
     12 C9         -3.5011    4.7657   -2.4559 C.3       1 <0>        -0.1213
     13 C10        -3.5232    3.2909   -2.0502 C.3       1 <0>        -0.1082
     14 C11        -2.4388    3.8883    0.1294 C.3       1 <0>        -0.0794
     15 C12        -1.1750    3.1120   -0.1282 C.ar      1 <0>        -0.0445
     16 C13        -1.2133    1.7151   -0.1625 C.ar      1 <0>        -0.0638
     17 C14        -0.0364    0.9916   -0.3420 C.ar      1 <0>        -0.0725
     18 C15         1.1588    1.6610   -0.5145 C.ar      1 <0>        -0.1286
     19 C16         1.1875    3.0442   -0.5046 C.ar      1 <0>        -0.0976
     20 C17         0.0232    3.7680   -0.3121 C.ar      1 <0>        -0.1217
     21 C18        -4.9189    1.0807    0.0906 C.1       1 <0>         0.2571
     22 N3         -5.9160    0.5658    0.2670 N.1       1 <0>        -0.4226
     23 H1         -1.2801   -3.6776    2.9433 H         1 <0>         0.0786
     24 H2         -1.7207   -2.1591    3.7957 H         1 <0>         0.0581
     25 H3         -0.1663   -2.2689    2.9020 H         1 <0>         0.0593
     26 H4         -2.3387   -2.8045    0.9948 H         1 <0>         0.4195
     27 H5         -3.0726   -1.0239   -0.3303 H         1 <0>         0.4312
     28 H6         -5.7890    3.3589   -0.5393 H         1 <0>         0.0652
     29 H7         -5.0158    3.7767    1.0274 H         1 <0>         0.0677
     30 H8         -5.8367    5.8169   -0.1368 H         1 <0>         0.0652
     31 H9         -4.0456    5.8278   -0.0005 H         1 <0>         0.0689
     32 H10        -5.6552    4.9476   -2.4620 H         1 <0>         0.0619
     33 H11        -4.7755    6.5033   -2.2823 H         1 <0>         0.0640
     34 H12        -3.4189    4.8435   -3.5501 H         1 <0>         0.0655
     35 H13        -2.6384    5.2618   -1.9872 H         1 <0>         0.0687
     36 H14        -2.5959    2.8040   -2.3864 H         1 <0>         0.0692
     37 H15        -4.3875    2.7951   -2.5162 H         1 <0>         0.0659
     38 H16        -2.3339    4.8992   -0.2913 H         1 <0>         0.0967
     39 H17        -2.6050    3.9582    1.2145 H         1 <0>         0.0880
     40 H18        -0.0595   -0.0881   -0.3506 H         1 <0>         0.1172
     41 H19         2.0728    1.1038   -0.6578 H         1 <0>         0.1244
     42 H20         2.1241    3.5626   -0.6477 H         1 <0>         0.1254
     43 H21         0.0537    4.8475   -0.3063 H         1 <0>         0.1282
@<TRIPOS>BOND
     1    1    2 1
     2    1   23 1
     3    1   24 1
     4    1   25 1
     5    2    3 am
     6    2   26 1
     7    3    4 2
     8    3    5 am
     9    5    6 1
    10    5   27 1
    11    6   16 1
    12    6    7 2
    13    7    8 1
    14    7   21 1
    15    8   13 1
    16    8    9 1
    17    8   14 1
    18    9   10 1
    19    9   28 1
    20    9   29 1
    21   10   11 1
    22   10   30 1
    23   10   31 1
    24   11   12 1
    25   11   32 1
    26   11   33 1
    27   12   13 1
    28   12   34 1
    29   12   35 1
    30   13   36 1
    31   13   37 1
    32   14   15 1
    33   14   38 1
    34   14   39 1
    35   15   20 ar
    36   15   16 ar
    37   16   17 ar
    38   17   18 ar
    39   17   40 1
    40   18   19 ar
    41   18   41 1
    42   19   20 ar
    43   19   42 1
    44   20   43 1
    45   21   22 3
@<TRIPOS>MOLECULE
ZINC00492981
   39    41     0     0     0
SMALL
USER_CHARGES

@<TRIPOS>ATOM
      1 C1          0.6529    1.2143    0.0733 C.3       1 <0>        -0.1002
      2 C2          0.3882   -0.2676    0.0030 C.2       1 <0>         0.1826
      3 C3         -0.8807   -0.7077    0.0622 C.2       1 <0>        -0.2851
      4 C4         -1.1976   -2.1767   -0.0030 C.3       1 <0>         0.0875
      5 H1         -2.0472   -2.3346   -0.6674 H         1 <0>         0.1004
      6 C5         -0.0078   -2.9358   -0.5246 C.2       1 <0>        -0.2640
      7 C6          1.2216   -2.3669   -0.5515 C.2       1 <0>         0.4285
      8 O1          1.4247   -1.1091   -0.1224 O.3       1 <0>        -0.2366
      9 N1          2.2845   -3.0901   -1.0330 N.pl3     1 <0>        -0.8280
     10 C7         -0.1768   -4.2767   -0.9980 C.1       1 <0>         0.2696
     11 N2         -0.3109   -5.3404   -1.3736 N.1       1 <0>        -0.4356
     12 C8         -1.5417   -2.6761    1.3766 C.ar      1 <0>        -0.0657
     13 C9         -0.6895   -2.4579    2.4155 C.ar      1 <0>        -0.0995
     14 C10        -0.9906   -2.9120    3.6978 C.ar      1 <0>        -0.1131
     15 C11        -2.1454   -3.5875    3.9490 C.ar      1 <0>        -0.1048
     16 C12        -3.0497   -3.8317    2.9018 C.ar      1 <0>        -0.0502
     17 C13        -2.7464   -3.3642    1.5984 C.ar      1 <0>        -0.0387
     18 C14        -3.6538   -3.6034    0.5521 C.ar      1 <0>        -0.1153
     19 C15        -4.8111   -4.2735    0.8046 C.ar      1 <0>        -0.1102
     20 C16        -5.1124   -4.7275    2.0875 C.ar      1 <0>        -0.1165
     21 C17        -4.2517   -4.5260    3.1223 C.ar      1 <0>        -0.1034
     22 C18        -1.9299    0.2212    0.1876 C.2       1 <0>         0.4026
     23 O2         -1.6855    1.4099    0.2416 O.2       1 <0>        -0.4684
     24 C19        -3.3569   -0.2584    0.2551 C.3       1 <0>        -0.2084
     25 H2          1.7257    1.3954    0.0071 H         1 <0>         0.0745
     26 H3          0.1485    1.7132   -0.7542 H         1 <0>         0.1108
     27 H4          0.2759    1.6063    1.0180 H         1 <0>         0.1096
     28 H5          2.1505   -3.9974   -1.3488 H         1 <0>         0.4270
     29 H6          3.1695   -2.6937   -1.0574 H         1 <0>         0.4128
     30 H7          0.2340   -1.9251    2.2430 H         1 <0>         0.1148
     31 H8         -0.2972   -2.7256    4.5046 H         1 <0>         0.1235
     32 H9         -2.3652   -3.9342    4.9479 H         1 <0>         0.1272
     33 H10        -3.4340   -3.2570   -0.4469 H         1 <0>         0.1273
     34 H11        -5.5066   -4.4560   -0.0012 H         1 <0>         0.1237
     35 H12        -6.0379   -5.2564    2.2608 H         1 <0>         0.1235
     36 H13        -4.4981   -4.8841    4.1109 H         1 <0>         0.1272
     37 H14        -3.3779   -1.3464    0.1921 H         1 <0>         0.0850
     38 H15        -3.8030    0.0596    1.1974 H         1 <0>         0.0929
     39 H16        -3.9221    0.1645   -0.5754 H         1 <0>         0.0926
@<TRIPOS>BOND
     1    1    2 1
     2    1   25 1
     3    1   26 1
     4    1   27 1
     5    2    8 1
     6    2    3 2
     7    3    4 1
     8    3   22 1
     9    4    5 1
    10    4    6 1
    11    4   12 1
    12    6    7 2
    13    6   10 1
    14    7    8 1
    15    7    9 1
    16    9   28 1
    17    9   29 1
    18   10   11 3
    19   12   17 ar
    20   12   13 ar
    21   13   14 ar
    22   13   30 1
    23   14   15 ar
    24   14   31 1
    25   15   16 ar
    26   15   32 1
    27   16   21 ar
    28   16   17 ar
    29   17   18 ar
    30   18   19 ar
    31   18   33 1
    32   19   20 ar
    33   19   34 1
    34   20   21 ar
    35   20   35 1
    36   21   36 1
    37   22   23 2
    38   22   24 1
    39   24   37 1
    40   24   38 1
    41   24   39 1
@<TRIPOS>MOLECULE
ZINC50375809
   34    36     0     0     0
SMALL
USER_CHARGES

@<TRIPOS>ATOM
      1 C1         -0.3952    1.4710   -0.1414 C.3       1 <0>         0.0305
      2 O1         -0.2448    0.0510   -0.0851 O.3       1 <0>        -0.3667
      3 C2          0.5051   -0.4976   -1.1708 C.3       1 <0>         0.0690
      4 H1          0.3891    0.1179   -2.0628 H         1 <0>         0.0819
      5 C3          2.0010   -0.6214   -0.7884 C.3       1 <0>        -0.1604
      6 C4          2.5081   -1.7280   -1.7462 C.3       1 <0>        -0.1234
      7 C5          1.3386   -2.7315   -1.8178 C.3       1 <0>        -0.1390
      8 C6          0.0626   -1.9480   -1.4542 C.3       1 <0>         0.1418
      9 H2         -0.6405   -1.9678   -2.2869 H         1 <0>         0.1013
     10 N1         -0.5573   -2.5261   -0.2594 N.pl3     1 <0>        -0.4904
     11 C7          0.0921   -2.8880    0.9100 C.ar      1 <0>         0.0732
     12 C8          1.4128   -2.8424    1.3298 C.ar      1 <0>        -0.1038
     13 C9          1.7490   -3.2920    2.5900 C.ar      1 <0>        -0.0957
     14 C10         0.7733   -3.7908    3.4417 C.ar      1 <0>        -0.0916
     15 C11        -0.5436   -3.8437    3.0406 C.ar      1 <0>        -0.0503
     16 C12        -0.8998   -3.3913    1.7677 C.ar      1 <0>         0.0872
     17 N2         -2.0813   -3.3161    1.1003 N.2       1 <0>        -0.5466
     18 C13        -1.8832   -2.8033   -0.0884 C.2       1 <0>         0.5582
     19 N3         -2.8669   -2.5799   -1.0288 N.pl3     1 <0>        -0.8299
     20 Br1         1.2550   -4.4027    5.1649 Br        1 <0>        -0.0504
     21 H3          0.5879    1.9414   -0.1233 H         1 <0>         0.0435
     22 H4         -0.9124    1.7454   -1.0607 H         1 <0>         0.0415
     23 H5         -0.9756    1.8092    0.7170 H         1 <0>         0.0878
     24 H6          2.5251    0.3168   -0.9703 H         1 <0>         0.0758
     25 H7          2.1096   -0.9306    0.2511 H         1 <0>         0.0920
     26 H8          2.7157   -1.3132   -2.7325 H         1 <0>         0.0758
     27 H9          3.3978   -2.2075   -1.3380 H         1 <0>         0.0791
     28 H10         1.2528   -3.1335   -2.8273 H         1 <0>         0.0845
     29 H11         1.4971   -3.5411   -1.1053 H         1 <0>         0.0863
     30 H12         2.1768   -2.4561    0.6715 H         1 <0>         0.1352
     31 H13         2.7780   -3.2560    2.9157 H         1 <0>         0.1356
     32 H14        -1.2981   -4.2337    3.7078 H         1 <0>         0.1363
     33 H15        -2.6279   -2.2701   -1.9164 H         1 <0>         0.4068
     34 H16        -3.7977   -2.7325   -0.8026 H         1 <0>         0.4250
@<TRIPOS>BOND
     1    1    2 1
     2    1   21 1
     3    1   22 1
     4    1   23 1
     5    2    3 1
     6    3    4 1
     7    3    8 1
     8    3    5 1
     9    5    6 1
    10    5   24 1
    11    5   25 1
    12    6    7 1
    13    6   26 1
    14    6   27 1
    15    7    8 1
    16    7   28 1
    17    7   29 1
    18    8    9 1
    19    8   10 1
    20   10   18 1
    21   10   11 1
    22   11   16 ar
    23   11   12 ar
    24   12   13 ar
    25   12   30 1
    26   13   14 ar
    27   13   31 1
    28   14   15 ar
    29   14   20 1
    30   15   16 ar
    31   15   32 1
    32   16   17 1
    33   17   18 2
    34   18   19 1
    35   19   33 1
    36   19   34 1
@<TRIPOS>MOLECULE
ZINC55334292
   27    29     0     0     0
SMALL
USER_CHARGES

@<TRIPOS>ATOM
      1 C1         -0.0166    1.3755    0.0096 C.ar      1 <0>        -0.1061
      2 C2          1.1702    2.0868    0.0021 C.ar      1 <0>        -0.1100
      3 C3          2.3823    1.4207   -0.0135 C.ar      1 <0>        -0.0940
      4 C4          2.4144    0.0402   -0.0211 C.ar      1 <0>        -0.0718
      5 C5          1.2207   -0.6822   -0.0132 C.ar      1 <0>         0.0261
      6 C6          0.0021   -0.0041    0.0020 C.ar      1 <0>        -0.0982
      7 C7          1.2476   -2.1632   -0.0218 C.2       1 <0>        -0.3057
      8 C8          1.2695   -3.0455    1.1493 C.2       1 <0>         0.2324
      9 N1          1.2893   -4.2810    0.7016 N.2       1 <0>        -0.2965
     10 O1          1.2815   -4.2542   -0.7115 O.3       1 <0>        -0.0961
     11 C9          1.2509   -2.9808   -1.1335 C.2       1 <0>         0.3777
     12 N2          1.2301   -2.5625   -2.4477 N.pl3     1 <0>        -0.8056
     13 C10         1.2700   -2.6250    2.5649 C.2       1 <0>         0.0296
     14 C11         0.6598   -3.2762    3.5913 C.2       1 <0>        -0.1493
     15 C12         0.9171   -2.5280    4.7564 C.2       1 <0>        -0.2168
     16 C13         1.6639   -1.4678    4.3882 C.2       1 <0>        -0.0126
     17 O2          1.8800   -1.5328    3.0651 O.3       1 <0>        -0.1518
     18 Br1         4.0723   -0.8691   -0.0430 Br        1 <0>        -0.0439
     19 H1         -0.9598    1.9015    0.0259 H         1 <0>         0.1305
     20 H2          1.1501    3.1666    0.0080 H         1 <0>         0.1320
     21 H3          3.3054    1.9813   -0.0200 H         1 <0>         0.1334
     22 H4         -0.9252   -0.5578    0.0082 H         1 <0>         0.1297
     23 H5          1.2110   -1.6150   -2.6549 H         1 <0>         0.4275
     24 H6          1.2345   -3.2157   -3.1648 H         1 <0>         0.4155
     25 H7          0.0881   -4.1901    3.5255 H         1 <0>         0.1564
     26 H8          0.5795   -2.7596    5.7558 H         1 <0>         0.1570
     27 H9          2.0313   -0.6966    5.0490 H         1 <0>         0.2106
@<TRIPOS>BOND
     1    1    6 ar
     2    1    2 ar
     3    1   19 1
     4    2    3 ar
     5    2   20 1
     6    3    4 ar
     7    3   21 1
     8    4    5 ar
     9    4   18 1
    10    5    6 ar
    11    5    7 1
    12    6   22 1
    13    7   11 2
    14    7    8 1
    15    8    9 2
    16    8   13 1
    17    9   10 1
    18   10   11 1
    19   11   12 1
    20   12   23 1
    21   12   24 1
    22   13   17 1
    23   13   14 2
    24   14   15 1
    25   14   25 1
    26   15   16 2
    27   15   26 1
    28   16   17 1
    29   16   27 1
@<TRIPOS>MOLECULE
ZINC05078190
   45    47     0     0     0
SMALL
USER_CHARGES
N-(4-amino-2-cinnamylsulfanyl-6-oxo-1H-pyrimidin-5-yl)benzamide
@<TRIPOS>ATOM
      1 C1         -2.2985   -8.9490    0.9651 C.ar      1 <0>        -0.1138
      2 C2         -2.6694   -8.1883    2.0595 C.ar      1 <0>        -0.1202
      3 C3         -2.4229   -6.8308    2.0754 C.ar      1 <0>        -0.1028
      4 C4         -1.7976   -6.2257    0.9846 C.ar      1 <0>        -0.0676
      5 C5         -1.4308   -6.9977   -0.1184 C.ar      1 <0>        -0.1094
      6 C6         -1.6779   -8.3551   -0.1193 C.ar      1 <0>        -0.1195
      7 C7         -1.5304   -4.7719    0.9949 C.2       1 <0>        -0.0736
      8 C8         -0.9362   -4.1998   -0.0429 C.2       1 <0>        -0.1566
      9 C9         -0.6638   -2.7177   -0.0325 C.3       1 <0>        -0.0661
     10 S1          1.1236   -2.4328   -0.0351 S.3       1 <0>         0.0141
     11 C10         1.1527   -0.6711   -0.0219 C.2       1 <0>         0.4029
     12 N1          2.3516   -0.0246   -0.0207 N.am      1 <0>        -0.6237
     13 H1          3.2020   -0.5508   -0.0277 H         1 <0>         0.4275
     14 C11         2.3948    1.3242   -0.0101 C.2       1 <0>         0.5476
     15 O1          3.4656    1.9118   -0.0090 O.2       1 <0>        -0.5193
     16 C12         1.1882    2.0393   -0.0014 C.2       1 <0>        -0.1412
     17 C13        -0.0081    1.3291   -0.0036 C.2       1 <0>         0.4601
     18 N2          0.0151   -0.0084   -0.0138 N.2       1 <0>        -0.5680
     19 N3         -1.2160    2.0029   -0.0009 N.pl3     1 <0>        -0.8249
     20 N4          1.1877    3.4473    0.0088 N.am      1 <0>        -0.6426
     21 C14         1.7830    4.1141    1.0174 C.2       1 <0>         0.5592
     22 O2          2.3941    3.5032    1.8731 O.2       1 <0>        -0.5082
     23 C15         1.6932    5.5881    1.0836 C.ar      1 <0>        -0.1304
     24 C16         0.9974    6.2929    0.0999 C.ar      1 <0>        -0.0898
     25 C17         0.9122    7.6680    0.1710 C.ar      1 <0>        -0.1267
     26 C18         1.5245    8.3494    1.2079 C.ar      1 <0>        -0.0943
     27 C19         2.2209    7.6574    2.1828 C.ar      1 <0>        -0.1255
     28 C20         2.3086    6.2818    2.1269 C.ar      1 <0>        -0.0591
     29 H2         -2.4941  -10.0111    0.9575 H         1 <0>         0.1237
     30 H3         -3.1533   -8.6579    2.9032 H         1 <0>         0.1252
     31 H4         -2.7129   -6.2381    2.9303 H         1 <0>         0.1258
     32 H5         -0.9506   -6.5344   -0.9676 H         1 <0>         0.1256
     33 H6         -1.3905   -8.9545   -0.9705 H         1 <0>         0.1249
     34 H7         -1.8193   -4.1758    1.8479 H         1 <0>         0.1252
     35 H8         -0.6474   -4.7960   -0.8959 H         1 <0>         0.1275
     36 H9         -1.1011   -2.2742    0.8621 H         1 <0>         0.1080
     37 H10        -1.1059   -2.2608   -0.9178 H         1 <0>         0.1147
     38 H11        -2.0488    1.5056   -0.0065 H         1 <0>         0.4100
     39 H12        -1.2303    2.9728    0.0065 H         1 <0>         0.4133
     40 H13         0.7589    3.9374   -0.7101 H         1 <0>         0.3990
     41 H14         0.5232    5.7625   -0.7126 H         1 <0>         0.1237
     42 H15         0.3704    8.2142   -0.5870 H         1 <0>         0.1297
     43 H16         1.4583    9.4263    1.2566 H         1 <0>         0.1283
     44 H17         2.6966    8.1953    2.9895 H         1 <0>         0.1312
     45 H18         2.8526    5.7428    2.8885 H         1 <0>         0.1362
@<TRIPOS>BOND
     1    1    6 ar
     2    1    2 ar
     3    1   29 1
     4    2    3 ar
     5    2   30 1
     6    3    4 ar
     7    3   31 1
     8    4    5 ar
     9    4    7 1
    10    5    6 ar
    11    5   32 1
    12    6   33 1
    13    7    8 2
    14    7   34 1
    15    8    9 1
    16    8   35 1
    17    9   10 1
    18    9   36 1
    19    9   37 1
    20   10   11 1
    21   11   18 2
    22   11   12 1
    23   12   13 1
    24   12   14 am
    25   14   15 2
    26   14   16 1
    27   16   17 2
    28   16   20 1
    29   17   18 1
    30   17   19 1
    31   19   38 1
    32   19   39 1
    33   20   21 am
    34   20   40 1
    35   21   22 2
    36   21   23 1
    37   23   28 ar
    38   23   24 ar
    39   24   25 ar
    40   24   41 1
    41   25   26 ar
    42   25   42 1
    43   26   27 ar
    44   26   43 1
    45   27   28 ar
    46   27   44 1
    47   28   45 1
@<TRIPOS>MOLECULE
ZINC23590774
   52    54     0     0     0
SMALL
USER_CHARGES
2-[[(7S)-4-amino-7-methyl-5,6,7,8-tetrahydrobenzothiopheno[2,3-d]pyrimidin-2-yl]sulfanyl]-N-(tert-butylcarbamoyl)acetamide
@<TRIPOS>ATOM
      1 C1         -5.0100    3.5409   -2.2113 C.3       1 <0>        -0.1510
      2 C2         -3.5759    3.0405   -2.0279 C.3       1 <0>        -0.0860
      3 H1         -3.0355    3.1553   -2.9791 H         1 <0>         0.0792
      4 C3         -2.8844    3.8535   -0.9296 C.3       1 <0>        -0.1161
      5 C4         -1.3898    3.5320   -0.9084 C.3       1 <0>        -0.0706
      6 C5         -1.2120    2.0187   -0.8192 C.2       1 <0>        -0.0780
      7 C6         -2.2255    1.1869   -1.1311 C.2       1 <0>        -0.1503
      8 S1         -1.5773   -0.4449   -0.8862 S.3       1 <0>         0.1183
      9 C7          0.0578   -0.0063   -0.3566 C.ar      1 <0>         0.1612
     10 C8          0.0447    1.4024   -0.3873 C.ar      1 <0>        -0.2577
     11 C9          1.2584    2.0356    0.0010 C.ar      1 <0>         0.5092
     12 N1          2.2917    1.2903    0.3553 N.ar      1 <0>        -0.6063
     13 C10         2.2360   -0.0364    0.3617 C.ar      1 <0>         0.3440
     14 N2          1.1309   -0.6801    0.0093 N.ar      1 <0>        -0.5045
     15 S2          3.6566   -0.9590    0.8469 S.3       1 <0>         0.1124
     16 C11         4.8048    0.3947    1.2006 C.3       1 <0>        -0.1577
     17 C12         6.1277   -0.1724    1.6470 C.2       1 <0>         0.5377
     18 O1          6.2792   -1.3731    1.7190 O.2       1 <0>        -0.4531
     19 N3          7.1425    0.6552    1.9663 N.am      1 <0>        -0.7005
     20 C13         8.3256    0.1480    2.3656 C.2       1 <0>         0.6982
     21 O2          8.4774   -1.0557    2.4377 O.2       1 <0>        -0.5268
     22 N4          9.3403    0.9756    2.6848 N.am      1 <0>        -0.7409
     23 C14        10.6263    0.4242    3.1189 C.3       1 <0>         0.1891
     24 C15        11.2035   -0.4576    2.0098 C.3       1 <0>        -0.1692
     25 C16        11.5970    1.5685    3.4178 C.3       1 <0>        -0.1556
     26 C17        10.4215   -0.4140    4.3823 C.3       1 <0>        -0.1692
     27 N5          1.3563    3.4151    0.0077 N.pl3     1 <0>        -0.8537
     28 C18        -3.6007    1.5641   -1.5919 C.3       1 <0>        -0.0371
     29 H2         -4.9932    4.5957   -2.5228 H         1 <0>         0.0600
     30 H3         -5.5552    3.4480   -1.2604 H         1 <0>         0.0583
     31 H4         -5.5126    2.9387   -2.9825 H         1 <0>         0.0600
     32 H5         -3.0222    4.9270   -1.1262 H         1 <0>         0.0751
     33 H6         -3.3243    3.6001    0.0463 H         1 <0>         0.0711
     34 H7         -0.9207    3.9083   -1.8295 H         1 <0>         0.0847
     35 H8         -0.9235    4.0136   -0.0363 H         1 <0>         0.0778
     36 H9          4.9520    0.9974    0.2923 H         1 <0>         0.1316
     37 H10         4.3898    1.0286    1.9980 H         1 <0>         0.1316
     38 H11         7.0051    1.7446    1.9010 H         1 <0>         0.4338
     39 H12         9.2029    2.0650    2.6194 H         1 <0>         0.4153
     40 H13        12.1691   -0.8716    2.3357 H         1 <0>         0.0650
     41 H14        11.3508    0.1451    1.1015 H         1 <0>         0.0538
     42 H15        10.5056   -1.2802    1.7949 H         1 <0>         0.0802
     43 H16        12.5626    1.1545    3.7437 H         1 <0>         0.0763
     44 H17        11.1820    2.2025    4.2151 H         1 <0>         0.0632
     45 H18        11.7443    2.1711    2.5094 H         1 <0>         0.0632
     46 H19        11.3871   -0.8280    4.7082 H         1 <0>         0.0650
     47 H20         9.7236   -1.2367    4.1674 H         1 <0>         0.0802
     48 H21        10.0065    0.2200    5.1797 H         1 <0>         0.0538
     49 H22         2.2975    3.8982    0.3090 H         1 <0>         0.4265
     50 H23         0.4930    4.0292   -0.2882 H         1 <0>         0.4328
     51 H24        -4.3220    1.4362   -0.7713 H         1 <0>         0.0893
     52 H25        -3.8990    0.9352   -2.4436 H         1 <0>         0.0864
@<TRIPOS>BOND
     1    1    2 1
     2    1   29 1
     3    1   30 1
     4    1   31 1
     5    2    3 1
     6    2   28 1
     7    2    4 1
     8    4    5 1
     9    4   32 1
    10    4   33 1
    11    5    6 1
    12    5   34 1
    13    5   35 1
    14    6   10 1
    15    6    7 2
    16    7    8 1
    17    7   28 1
    18    8    9 1
    19    9   14 ar
    20    9   10 ar
    21   10   11 ar
    22   11   12 ar
    23   11   27 1
    24   12   13 ar
    25   13   14 ar
    26   13   15 1
    27   15   16 1
    28   16   17 1
    29   16   36 1
    30   16   37 1
    31   17   18 2
    32   17   19 am
    33   19   20 am
    34   19   38 1
    35   20   21 2
    36   20   22 am
    37   22   23 1
    38   22   39 1
    39   23   24 1
    40   23   25 1
    41   23   26 1
    42   24   40 1
    43   24   41 1
    44   24   42 1
    45   25   43 1
    46   25   44 1
    47   25   45 1
    48   26   46 1
    49   26   47 1
    50   26   48 1
    51   27   49 1
    52   27   50 1
    53   28   51 1
    54   28   52 1
@<TRIPOS>MOLECULE
ZINC44875075
   34    34     0     0     0
SMALL
USER_CHARGES

@<TRIPOS>ATOM
      1 C1         -0.0187    1.5267   -0.0284 C.3       1 <0>        -0.1502
      2 C2          0.0023   -0.0032   -0.0318 C.3       1 <0>        -0.1237
      3 C3         -1.4329   -0.5329   -0.0095 C.3       1 <0>        -0.0941
      4 C4         -1.4120   -2.0628   -0.0128 C.3       1 <0>        -0.0448
      5 H1         -0.8314   -2.4163   -0.8649 H         1 <0>         0.1261
      6 C5         -0.7838   -2.5594    1.2638 C.2       1 <0>         0.3658
      7 N1         -0.8050   -1.8213    2.3238 N.2       1 <0>        -0.3941
      8 O1         -0.2148   -2.2879    3.5234 O.3       1 <0>        -0.4212
      9 N2         -0.1871   -3.8001    1.3005 N.pl3     1 <0>        -0.8694
     10 C6         -2.8222   -2.5843   -0.1147 C.2       1 <0>         0.5273
     11 O2         -3.7525   -1.8086   -0.1784 O.2       1 <0>        -0.4909
     12 N3         -3.0497   -3.9125   -0.1351 N.am      1 <0>        -0.6691
     13 C7         -4.3625   -4.3978   -0.1346 C.ar      1 <0>         0.1798
     14 C8         -5.3619   -3.7012   -0.8008 C.ar      1 <0>        -0.0893
     15 C9         -6.6571   -4.1832   -0.7988 C.ar      1 <0>        -0.0587
     16 C10        -6.9585   -5.3585   -0.1333 C.ar      1 <0>        -0.0992
     17 C11        -5.9657   -6.0540    0.5313 C.ar      1 <0>        -0.0644
     18 C12        -4.6672   -5.5804    0.5278 C.ar      1 <0>        -0.1097
     19 Br1        -3.3085   -6.5367    1.4307 Br        1 <0>        -0.0311
     20 Br2        -8.0190   -3.2354   -1.7059 Br        1 <0>        -0.0284
     21 H2          1.0038    1.9041   -0.0443 H         1 <0>         0.0543
     22 H3         -0.5518    1.8847   -0.9091 H         1 <0>         0.0548
     23 H4         -0.5229    1.8811    0.8706 H         1 <0>         0.0568
     24 H5          0.5065   -0.3577   -0.9308 H         1 <0>         0.0590
     25 H6          0.5355   -0.3612    0.8489 H         1 <0>         0.0676
     26 H7         -1.9371   -0.1785    0.8896 H         1 <0>         0.0892
     27 H8         -1.9661   -0.1749   -0.8902 H         1 <0>         0.0820
     28 H9         -0.2802   -1.6666    4.2615 H         1 <0>         0.4029
     29 H10        -0.1712   -4.3543    0.5046 H         1 <0>         0.3926
     30 H11         0.2172   -4.1197    2.1222 H         1 <0>         0.4119
     31 H12        -2.3036   -4.5322   -0.1502 H         1 <0>         0.4129
     32 H13        -5.1274   -2.7836   -1.3198 H         1 <0>         0.1606
     33 H14        -7.9715   -5.7330   -0.1329 H         1 <0>         0.1462
     34 H15        -6.2041   -6.9708    1.0501 H         1 <0>         0.1485
@<TRIPOS>BOND
     1    1    2 1
     2    1   21 1
     3    1   22 1
     4    1   23 1
     5    2    3 1
     6    2   24 1
     7    2   25 1
     8    3    4 1
     9    3   26 1
    10    3   27 1
    11    4    5 1
    12    4    6 1
    13    4   10 1
    14    6    7 2
    15    6    9 1
    16    7    8 1
    17    8   28 1
    18    9   29 1
    19    9   30 1
    20   10   11 2
    21   10   12 am
    22   12   13 1
    23   12   31 1
    24   13   18 ar
    25   13   14 ar
    26   14   15 ar
    27   14   32 1
    28   15   16 ar
    29   15   20 1
    30   16   17 ar
    31   16   33 1
    32   17   18 ar
    33   17   34 1
    34   18   19 1
@<TRIPOS>MOLECULE
ZINC11331680
   51    54     0     0     0
SMALL
USER_CHARGES

@<TRIPOS>ATOM
      1 C1         -0.2055    1.5831    0.1882 C.3       1 <0>        -0.1730
      2 C2         -0.0392    0.0716    0.0187 C.3       1 <0>         0.1105
      3 N1         -1.3575   -0.5675    0.0169 N.pl3     1 <0>        -0.5048
      4 C3         -2.0150   -1.0273    1.1437 C.ar      1 <0>         0.1464
      5 C4         -1.6723   -1.0301    2.4927 C.ar      1 <0>        -0.1455
      6 C5         -2.5367   -1.5655    3.4229 C.ar      1 <0>        -0.0817
      7 C6         -3.7518   -2.1046    3.0286 C.ar      1 <0>        -0.1533
      8 C7         -4.1090   -2.1107    1.6977 C.ar      1 <0>        -0.0572
      9 C8         -3.2446   -1.5732    0.7468 C.ar      1 <0>        -0.1058
     10 C9         -3.3160   -1.4239   -0.7185 C.ar      1 <0>        -0.0852
     11 C10        -2.1269   -0.7927   -1.1130 C.ar      1 <0>         0.1316
     12 C11        -1.9152   -0.5142   -2.4597 C.ar      1 <0>        -0.1229
     13 C12        -2.8688   -0.8535   -3.3945 C.ar      1 <0>        -0.1049
     14 C13        -4.0506   -1.4763   -3.0042 C.ar      1 <0>         0.1122
     15 C14        -4.2731   -1.7683   -1.6694 C.ar      1 <0>        -0.0599
     16 N2         -5.0131   -1.8155   -3.9647 N.am      1 <0>        -0.6709
     17 C15        -6.3229   -1.7744   -3.6498 C.2       1 <0>         0.5195
     18 O1         -6.6737   -1.3530   -2.5679 O.2       1 <0>        -0.5207
     19 C16        -7.3518   -2.2520   -4.6420 C.3       1 <0>        -0.1621
     20 C17        -8.7501   -2.0988   -4.0404 C.3       1 <0>         0.2770
     21 H1         -8.7934   -2.6205   -3.0843 H         1 <0>         0.1166
     22 C18        -9.7691   -2.6887   -4.9810 C.2       1 <0>        -0.1874
     23 C19       -10.3833   -3.8958   -4.9263 C.2       1 <0>        -0.1466
     24 C20       -11.2958   -4.2288   -5.9098 C.2       1 <0>        -0.1693
     25 C21       -11.5494   -3.3385   -6.8999 C.2       1 <0>        -0.2257
     26 S1        -10.4863   -1.9758   -6.4523 S.3       1 <0>         0.1619
     27 N3         -9.0404   -0.6777   -3.8348 N.am      1 <0>        -0.7302
     28 C22        -9.0430    0.1682   -4.8841 C.2       1 <0>         0.7030
     29 O2         -8.8044   -0.2481   -6.0012 O.2       1 <0>        -0.5742
     30 N4         -9.3100    1.4757   -4.6949 N.am      1 <0>        -0.8629
     31 H2          0.7753    2.0586    0.1896 H         1 <0>         0.0744
     32 H3         -0.7996    1.9780   -0.6359 H         1 <0>         0.0618
     33 H4         -0.7107    1.7895    1.1318 H         1 <0>         0.0620
     34 H5          0.4659   -0.1347   -0.9248 H         1 <0>         0.0873
     35 H6          0.5548   -0.3232    0.8429 H         1 <0>         0.0872
     36 H7         -0.7283   -0.6127    2.8106 H         1 <0>         0.1215
     37 H8         -2.2651   -1.5655    4.4682 H         1 <0>         0.1282
     38 H9         -4.4204   -2.5216    3.7671 H         1 <0>         0.1265
     39 H10        -5.0558   -2.5314    1.3928 H         1 <0>         0.1247
     40 H11        -1.0016   -0.0308   -2.7729 H         1 <0>         0.1268
     41 H12        -2.6981   -0.6340   -4.4381 H         1 <0>         0.1317
     42 H13        -5.1902   -2.2510   -1.3655 H         1 <0>         0.1371
     43 H14        -4.7366   -2.0799   -4.8561 H         1 <0>         0.4117
     44 H15        -7.2812   -1.6577   -5.5531 H         1 <0>         0.1252
     45 H16        -7.1703   -3.3007   -4.8773 H         1 <0>         0.1098
     46 H17       -10.1628   -4.5871   -4.1265 H         1 <0>         0.1281
     47 H18       -11.7988   -5.1843   -5.8898 H         1 <0>         0.1238
     48 H19       -12.2228   -3.4284   -7.7394 H         1 <0>         0.1751
     49 H20        -9.2307   -0.3455   -2.9436 H         1 <0>         0.4074
     50 H21        -9.5003    1.8079   -3.8037 H         1 <0>         0.3988
     51 H22        -9.3118    2.0845   -5.4501 H         1 <0>         0.4163
@<TRIPOS>BOND
     1    1    2 1
     2    1   31 1
     3    1   32 1
     4    1   33 1
     5    2    3 1
     6    2   34 1
     7    2   35 1
     8    3   11 1
     9    3    4 1
    10    4    9 ar
    11    4    5 ar
    12    5    6 ar
    13    5   36 1
    14    6    7 ar
    15    6   37 1
    16    7    8 ar
    17    7   38 1
    18    8    9 ar
    19    8   39 1
    20    9   10 1
    21   10   15 ar
    22   10   11 ar
    23   11   12 ar
    24   12   13 ar
    25   12   40 1
    26   13   14 ar
    27   13   41 1
    28   14   15 ar
    29   14   16 1
    30   15   42 1
    31   16   17 am
    32   16   43 1
    33   17   18 2
    34   17   19 1
    35   19   20 1
    36   19   44 1
    37   19   45 1
    38   20   21 1
    39   20   22 1
    40   20   27 1
    41   22   26 1
    42   22   23 2
    43   23   24 1
    44   23   46 1
    45   24   25 2
    46   24   47 1
    47   25   26 1
    48   25   48 1
    49   27   28 am
    50   27   49 1
    51   28   29 2
    52   28   30 am
    53   30   50 1
    54   30   51 1
@<TRIPOS>MOLECULE
ZINC59829685
   43    45     0     0     0
SMALL
USER_CHARGES

@<TRIPOS>ATOM
      1 C1         -0.0184    1.5028    0.0103 C.3       1 <0>        -0.1538
      2 C2          0.0021   -0.0041    0.0020 C.2       1 <0>         0.1188
      3 N1          0.0216   -0.6594    1.1231 N.2       1 <0>        -0.1791
      4 N2          0.0237    0.0345    2.3402 N.pl3     1 <0>        -0.5467
      5 C3          0.0446   -0.6655    3.5378 C.2       1 <0>         0.5273
      6 N3          0.0693   -1.9699    3.6676 N.2       1 <0>        -0.3133
      7 N4          0.0840   -2.2684    5.0363 N.2       1 <0>        -0.2916
      8 C4          0.0678   -1.1362    5.6983 C.2       1 <0>         0.1659
      9 N5          0.0490   -0.1162    4.7898 N.pl3     1 <0>        -0.3500
     10 N6          0.0335    1.2183    5.0811 N.3       1 <0>        -0.5946
     11 S1          0.0755   -0.9614    7.4516 S.3       1 <0>        -0.0111
     12 C5          0.1108   -2.6690    8.0627 C.3       1 <0>        -0.0496
     13 C6          0.1201   -2.6631    9.5697 C.ar      1 <0>        -0.0860
     14 C7          1.3212   -2.6327   10.2533 C.ar      1 <0>        -0.0960
     15 C8          1.3298   -2.6273   11.6356 C.ar      1 <0>        -0.1199
     16 C9          0.1373   -2.6519   12.3343 C.ar      1 <0>        -0.1072
     17 C10        -1.0638   -2.6814   11.6507 C.ar      1 <0>        -0.1202
     18 C11        -1.0725   -2.6824   10.2683 C.ar      1 <0>        -0.0964
     19 C12        -0.0001   -0.7340   -1.2782 C.ar      1 <0>        -0.0738
     20 C13        -0.0153   -0.0330   -2.4862 C.ar      1 <0>        -0.0798
     21 C14        -0.0173   -0.7222   -3.6809 C.ar      1 <0>        -0.1340
     22 C15        -0.0048   -2.1065   -3.6880 C.ar      1 <0>        -0.0878
     23 C16         0.0098   -2.8117   -2.4990 C.ar      1 <0>        -0.1521
     24 C17         0.0188   -2.1354   -1.2904 C.ar      1 <0>         0.1468
     25 O1          0.0398   -2.8274   -0.1218 O.3       1 <0>        -0.4716
     26 H1          1.0042    1.8801    0.0026 H         1 <0>         0.0873
     27 H2         -0.5455    1.8639   -0.8728 H         1 <0>         0.0903
     28 H3         -0.5286    1.8543    0.9071 H         1 <0>         0.0675
     29 H4          0.0106    1.0044    2.3455 H         1 <0>         0.4013
     30 H5         -0.9124    1.5587    5.1672 H         1 <0>         0.3614
     31 H6          0.5650    1.4122    5.9166 H         1 <0>         0.3785
     32 H7         -0.7718   -3.2005    7.7069 H         1 <0>         0.1081
     33 H8          1.0078   -3.1678    7.6957 H         1 <0>         0.1086
     34 H9          2.2529   -2.6135    9.7074 H         1 <0>         0.1274
     35 H10         2.2682   -2.6043   12.1697 H         1 <0>         0.1272
     36 H11         0.1440   -2.6484   13.4143 H         1 <0>         0.1257
     37 H12        -1.9955   -2.7009   12.1965 H         1 <0>         0.1269
     38 H13        -2.0110   -2.7017    9.7342 H         1 <0>         0.1268
     39 H14        -0.0259    1.0470   -2.4849 H         1 <0>         0.1328
     40 H15        -0.0291   -0.1798   -4.6147 H         1 <0>         0.1302
     41 H16        -0.0068   -2.6386   -4.6278 H         1 <0>         0.1293
     42 H17         0.0188   -3.8916   -2.5126 H         1 <0>         0.1332
     43 H18        -0.8374   -3.0398    0.2254 H         1 <0>         0.3931
@<TRIPOS>BOND
     1    1    2 1
     2    1   26 1
     3    1   27 1
     4    1   28 1
     5    2    3 2
     6    2   19 1
     7    3    4 1
     8    4    5 1
     9    4   29 1
    10    5    9 1
    11    5    6 2
    12    6    7 1
    13    7    8 2
    14    8    9 1
    15    8   11 1
    16    9   10 1
    17   10   30 1
    18   10   31 1
    19   11   12 1
    20   12   13 1
    21   12   32 1
    22   12   33 1
    23   13   18 ar
    24   13   14 ar
    25   14   15 ar
    26   14   34 1
    27   15   16 ar
    28   15   35 1
    29   16   17 ar
    30   16   36 1
    31   17   18 ar
    32   17   37 1
    33   18   38 1
    34   19   24 ar
    35   19   20 ar
    36   20   21 ar
    37   20   39 1
    38   21   22 ar
    39   21   40 1
    40   22   23 ar
    41   22   41 1
    42   23   24 ar
    43   23   42 1
    44   24   25 1
    45   25   43 1
@<TRIPOS>MOLECULE
ZINC03345420
   60    64     0     0     0
SMALL
USER_CHARGES
2-[(4-benzhydrylpiperazin-1-yl)methyl]-4-nitro-isoindoline-1,3-dione
@<TRIPOS>ATOM
      1 C1          0.7412    2.0913    5.8727 C.ar      1 <0>        -0.0832
      2 C2         -0.6385    2.1695    5.9068 C.ar      1 <0>        -0.0970
      3 C3         -1.3310    2.6466    4.8096 C.ar      1 <0>        -0.0821
      4 C4         -0.6438    3.0451    3.6783 C.ar      1 <0>        -0.1469
      5 C5          0.7355    2.9614    3.6421 C.ar      1 <0>        -0.1304
      6 C6          1.4284    2.4893    4.7412 C.ar      1 <0>        -0.0984
      7 C7         -1.3988    3.5648    2.4821 C.3       1 <0>         0.1457
      8 C8         -1.3511    5.0710    2.4735 C.ar      1 <0>        -0.1486
      9 C9         -0.2246    5.7242    2.0097 C.ar      1 <0>        -0.1284
     10 C10        -0.1827    7.1059    1.9973 C.ar      1 <0>        -0.0996
     11 C11        -1.2635    7.8343    2.4582 C.ar      1 <0>        -0.0831
     12 C12        -2.3878    7.1810    2.9273 C.ar      1 <0>        -0.0979
     13 C13        -2.4317    5.7994    2.9348 C.ar      1 <0>        -0.0819
     14 C14        -0.7300    1.5798    1.2666 C.3       1 <0>        -0.0305
     15 C15        -0.0127    1.0858    0.0080 C.3       1 <0>        -0.0211
     16 C16        -0.7771    3.0416   -1.1959 C.3       1 <0>        -0.0409
     17 C17        -1.4948    3.5356    0.0624 C.3       1 <0>        -0.0224
     18 C18        -0.1087    1.0567   -2.4117 C.3       1 <0>         0.2306
     19 N1         -0.4032    1.9641   -3.5234 N.am      1 <0>        -0.6017
     20 C19         0.3679    3.0074   -3.8792 C.2       1 <0>         0.5823
     21 O1          1.4021    3.3418   -3.3373 O.2       1 <0>        -0.4279
     22 C20        -0.2544    3.6790   -5.0396 C.ar      1 <0>        -0.1478
     23 C21         0.0786    4.7783   -5.8147 C.ar      1 <0>         0.0104
     24 C22        -0.7462    5.1551   -6.8630 C.ar      1 <0>        -0.0694
     25 C23        -1.8979    4.4425   -7.1396 C.ar      1 <0>        -0.0226
     26 C24        -2.2437    3.3408   -6.3728 C.ar      1 <0>         0.0354
     27 C25        -1.4284    2.9520   -5.3220 C.ar      1 <0>        -0.0930
     28 C26        -1.4773    1.8603   -4.3267 C.2       1 <0>         0.5595
     29 O2         -2.3436    1.0129   -4.2459 O.2       1 <0>        -0.3715
     30 N2         -3.4783    2.5824   -6.6756 N.pl3     1 <0>         0.0036
     31 O3         -4.1928    2.9261   -7.6002 O.2       1 <0>        -0.1240
     32 O4         -3.7797    1.6147   -6.0001 O.3       1 <0>        -0.1126
     33 H1          1.2823    1.7188    6.7300 H         1 <0>         0.1415
     34 H2         -1.1754    1.8582    6.7906 H         1 <0>         0.1427
     35 H3         -2.4090    2.7078    4.8362 H         1 <0>         0.1359
     36 H4          1.2721    3.2686    2.7566 H         1 <0>         0.1114
     37 H5          2.5063    2.4278    4.7144 H         1 <0>         0.1390
     38 H6         -2.4362    3.2344    2.5355 H         1 <0>         0.1580
     39 H7          0.6213    5.1551    1.6534 H         1 <0>         0.1114
     40 H8          0.6958    7.6163    1.6311 H         1 <0>         0.1388
     41 H9         -1.2293    8.9137    2.4520 H         1 <0>         0.1413
     42 H10        -3.2320    7.7501    3.2877 H         1 <0>         0.1427
     43 H11        -3.3101    5.2890    3.3013 H         1 <0>         0.1362
     44 H12        -1.7436    1.1797    1.2882 H         1 <0>         0.1631
     45 H13        -0.1871    1.2439    2.1500 H         1 <0>         0.1815
     46 H14         0.0021   -0.0041    0.0020 H         1 <0>         0.1862
     47 H15         1.0098    1.4634    0.0003 H         1 <0>         0.1609
     48 H16         0.2366    3.4417   -1.2171 H         1 <0>         0.1629
     49 H17        -1.3193    3.3776   -2.0798 H         1 <0>         0.1605
     50 H18        -1.5096    4.6255    0.0684 H         1 <0>         0.1775
     51 H19        -2.5173    3.1580    0.0697 H         1 <0>         0.1624
     52 H20         0.9705    0.9866   -2.2760 H         1 <0>         0.1784
     53 H21        -0.5121    0.0684   -2.6326 H         1 <0>         0.1814
     54 H22         0.9768    5.3392   -5.6027 H         1 <0>         0.1715
     55 H23        -0.4875    6.0118   -7.4677 H         1 <0>         0.1811
     56 H24        -2.5329    4.7464   -7.9587 H         1 <0>         0.1846
     57 N3         -0.7568    3.0577    1.2505 N.4       1 <0>        -0.4061
     58 H25         0.2072    3.4086    1.2081 H         1 <0>         0.4303
     59 N4         -0.7507    1.5640   -1.1802 N.4       1 <0>        -0.4246
     60 H26        -1.7148    1.2133   -1.1378 H         1 <0>         0.4450
@<TRIPOS>BOND
     1    1    6 ar
     2    1    2 ar
     3    1   33 1
     4    2    3 ar
     5    2   34 1
     6    3    4 ar
     7    3   35 1
     8    4    5 ar
     9    4    7 1
    10    5    6 ar
    11    5   36 1
    12    6   37 1
    13    7    8 1
    14    7   38 1
    15    7   57 1
    16    8   13 ar
    17    8    9 ar
    18    9   10 ar
    19    9   39 1
    20   10   11 ar
    21   10   40 1
    22   11   12 ar
    23   11   41 1
    24   12   13 ar
    25   12   42 1
    26   13   43 1
    27   14   15 1
    28   14   44 1
    29   14   45 1
    30   14   57 1
    31   15   46 1
    32   15   47 1
    33   15   59 1
    34   16   17 1
    35   16   48 1
    36   16   49 1
    37   16   59 1
    38   17   50 1
    39   17   51 1
    40   17   57 1
    41   18   19 1
    42   18   52 1
    43   18   53 1
    44   18   59 1
    45   19   28 am
    46   19   20 am
    47   20   21 2
    48   20   22 1
    49   22   27 ar
    50   22   23 ar
    51   23   24 ar
    52   23   54 1
    53   24   25 ar
    54   24   55 1
    55   25   26 ar
    56   25   56 1
    57   26   27 ar
    58   26   30 1
    59   27   28 1
    60   28   29 2
    61   30   31 2
    62   30   32 1
    63   57   58 1
    64   59   60 1
@<TRIPOS>MOLECULE
ZINC38797281
   50    53     0     0     0
SMALL
USER_CHARGES

@<TRIPOS>ATOM
      1 C1         -2.0988   -7.6928   -4.4062 C.3       1 <0>        -0.1344
      2 C2         -1.6578   -6.8180   -3.2611 C.ar      1 <0>        -0.0231
      3 C3         -1.2750   -5.5102   -3.5012 C.ar      1 <0>        -0.1204
      4 C4         -0.8707   -4.7039   -2.4574 C.ar      1 <0>        -0.0339
      5 C5         -0.8483   -5.2102   -1.1567 C.ar      1 <0>        -0.1722
      6 C6         -1.2357   -6.5304   -0.9215 C.ar      1 <0>        -0.0910
      7 C7         -1.6429   -7.3244   -1.9736 C.ar      1 <0>        -0.1265
      8 C8         -0.4157   -4.3521   -0.0335 C.2       1 <0>         0.5776
      9 O1         -0.4169   -3.1427   -0.1570 O.2       1 <0>        -0.4450
     10 N1         -0.0199   -4.9105    1.1275 N.am      1 <0>        -0.8751
     11 C9          0.0937   -6.3023    1.2321 C.ar      1 <0>         0.1106
     12 C10        -0.5268   -6.9734    2.2775 C.ar      1 <0>        -0.0976
     13 C11        -0.4147   -8.3458    2.3798 C.ar      1 <0>        -0.1067
     14 C12         0.3181   -9.0543    1.4387 C.ar      1 <0>         0.1991
     15 C13         0.9387   -8.3845    0.3943 C.ar      1 <0>        -0.1857
     16 C14         0.8223   -7.0128    0.2872 C.ar      1 <0>        -0.0251
     17 O2          0.4285  -10.4057    1.5403 O.3       1 <0>        -0.2772
     18 C15         1.1980  -11.0710    0.5366 C.3       1 <0>         0.0087
     19 S1          0.3319   -3.9508    2.4303 S.o2      1 <0>         2.6263
     20 O3          1.0823   -4.7511    3.3335 O.2       1 <0>        -0.8687
     21 O4          0.8245   -2.7238    1.9097 O.2       1 <0>        -0.8408
     22 C16        -1.1930   -3.5815    3.2323 C.ar      1 <0>        -0.5633
     23 C17        -2.0017   -2.4739    2.7374 C.ar      1 <0>         0.1216
     24 C18        -3.1802   -2.1383    3.3058 C.ar      1 <0>        -0.1343
     25 C19        -3.6708   -2.9004    4.4521 C.ar      1 <0>         0.3450
     26 N2         -4.7348   -2.8422    5.2129 N.am      1 <0>        -0.5083
     27 C20        -4.6500   -3.8402    6.1548 C.2       1 <0>         0.6477
     28 O5         -5.4773   -4.0606    7.0138 O.2       1 <0>        -0.2407
     29 N3         -3.4868   -4.5514    5.9765 N.am      1 <0>        -0.4760
     30 C21        -2.8401   -4.0382    4.9605 C.ar      1 <0>         0.3383
     31 C22        -1.5798   -4.3365    4.2832 C.ar      1 <0>        -0.0170
     32 H1         -3.1747   -7.5907   -4.5480 H         1 <0>         0.0864
     33 H2         -1.5819   -7.3881   -5.3162 H         1 <0>         0.0811
     34 H3         -1.8588   -8.7323   -4.1827 H         1 <0>         0.0773
     35 H4         -1.2925   -5.1199   -4.5080 H         1 <0>         0.1446
     36 H5         -0.5718   -3.6834   -2.6462 H         1 <0>         0.1466
     37 H6         -1.2202   -6.9283    0.0824 H         1 <0>         0.1419
     38 H7         -1.9468   -8.3448   -1.7924 H         1 <0>         0.1363
     39 H8         -1.0968   -6.4219    3.0107 H         1 <0>         0.1275
     40 H9         -0.8973   -8.8679    3.1928 H         1 <0>         0.1644
     41 H10         1.5096   -8.9366   -0.3376 H         1 <0>         0.1649
     42 H11         1.3015   -6.4920   -0.5286 H         1 <0>         0.1605
     43 H12         1.2053  -12.1427    0.7354 H         1 <0>         0.1232
     44 H13         0.7559  -10.8860   -0.4423 H         1 <0>         0.0756
     45 H14         2.2198  -10.6918    0.5514 H         1 <0>         0.0770
     46 H15        -1.6476   -1.9042    1.8909 H         1 <0>         0.2244
     47 H16        -3.7559   -1.3119    2.9159 H         1 <0>         0.2257
     48 H17        -0.9600   -5.1530    4.6233 H         1 <0>         0.2295
     49 H18        -3.1949   -5.3053    6.5125 H         1 <0>         0.5005
     50 H19        -5.4596   -2.2033    5.1269 H         1 <0>         0.5006
@<TRIPOS>BOND
     1    1    2 1
     2    1   32 1
     3    1   33 1
     4    1   34 1
     5    2    7 ar
     6    2    3 ar
     7    3    4 ar
     8    3   35 1
     9    4    5 ar
    10    4   36 1
    11    5    6 ar
    12    5    8 1
    13    6    7 ar
    14    6   37 1
    15    7   38 1
    16    8    9 2
    17    8   10 am
    18   10   11 1
    19   10   19 1
    20   11   16 ar
    21   11   12 ar
    22   12   13 ar
    23   12   39 1
    24   13   14 ar
    25   13   40 1
    26   14   15 ar
    27   14   17 1
    28   15   16 ar
    29   15   41 1
    30   16   42 1
    31   17   18 1
    32   18   43 1
    33   18   44 1
    34   18   45 1
    35   19   20 2
    36   19   21 2
    37   19   22 1
    38   22   31 ar
    39   22   23 ar
    40   23   24 ar
    41   23   46 1
    42   24   25 ar
    43   24   47 1
    44   25   30 ar
    45   25   26 2
    46   26   27 am
    47   26   50 1
    48   27   28 2
    49   27   29 am
    50   29   30 2
    51   29   49 1
    52   30   31 ar
    53   31   48 1
@<TRIPOS>MOLECULE
ZINC39674805
   80    84     0     0     0
SMALL
USER_CHARGES

@<TRIPOS>ATOM
      1 C1          0.4460    0.0232    1.9783 C.3       1 <0>        -0.0714
      2 C2          0.0681   -0.7148    0.7199 C.2       1 <0>         0.0228
      3 C3          0.0232   -2.1018    0.5620 C.2       1 <0>        -0.1942
      4 C4         -0.3722   -2.3091   -0.7480 C.2       1 <0>        -0.0427
      5 N1         -0.5406   -1.0695   -1.2967 N.pl3     1 <0>        -0.2359
      6 N2         -0.2818   -0.1698   -0.4172 N.2       1 <0>        -0.2579
      7 C5         -0.9579   -0.8064   -2.6761 C.3       1 <0>         0.1741
      8 C6         -2.2772   -1.5287   -2.9564 C.3       1 <0>        -0.1697
      9 C7         -1.1488    0.6989   -2.8729 C.3       1 <0>        -0.1484
     10 C8          0.1164   -1.3145   -3.6397 C.3       1 <0>        -0.1649
     11 C9         -0.5707   -3.6051   -1.4162 C.2       1 <0>         0.6229
     12 O1         -0.7795   -3.6463   -2.6138 O.2       1 <0>        -0.5135
     13 N3         -0.5212   -4.7465   -0.7012 N.am      1 <0>        -0.6064
     14 C10        -0.4127   -4.8931    0.7694 C.3       1 <0>         0.0973
     15 C11        -1.3405   -6.0799    1.1130 C.3       1 <0>        -0.1134
     16 H1         -0.9049   -6.6841    1.9088 H         1 <0>         0.1214
     17 C12        -1.4338   -6.8945   -0.1880 C.3       1 <0>        -0.0725
     18 C13        -0.5696   -6.1390   -1.2078 C.3       1 <0>         0.1089
     19 C14        -2.8795   -6.9538   -0.6719 C.3       1 <0>        -0.1452
     20 C15        -2.9551   -7.8164   -1.9349 C.3       1 <0>        -0.0109
     21 N4         -2.4616   -9.1665   -1.6376 N.4       1 <0>        -0.5044
     22 C16        -1.0437   -9.1103   -1.2621 C.3       1 <0>        -0.0122
     23 C17        -0.8872   -8.3022    0.0292 C.3       1 <0>        -0.1328
     24 C18        -2.7025   -5.5801    1.5208 C.2       1 <0>         0.5197
     25 O2         -3.1472   -4.5637    1.0308 O.2       1 <0>        -0.5035
     26 N5         -3.4265   -6.2628    2.4298 N.am      1 <0>        -0.7351
     27 C19        -4.7959   -5.8444    2.7394 C.3       1 <0>         0.0987
     28 C20        -5.3889   -6.7802    3.7946 C.3       1 <0>        -0.1046
     29 C21        -6.7976   -6.3498    4.1131 C.2       1 <0>         0.0785
     30 C22        -7.4753   -5.3070    3.5689 C.ar      1 <0>        -0.1606
     31 C23        -7.1080   -4.3457    2.5909 C.ar      1 <0>        -0.0097
     32 C24        -8.0022   -3.3722    2.2103 C.ar      1 <0>        -0.0126
     33 C25        -9.3375   -3.3004    2.7934 C.ar      1 <0>         0.0558
     34 C26        -9.7417   -4.1871    3.7263 C.ar      1 <0>        -0.1755
     35 C27        -8.8268   -5.2458    4.1679 C.ar      1 <0>         0.3410
     36 N6         -8.9805   -6.2079    5.0448 N.pl3     1 <0>        -0.5671
     37 C28        -7.7447   -6.9958    5.0986 C.3       1 <0>         0.0951
     38 H2         -7.9417   -8.0280    4.8090 H         1 <0>         0.1802
     39 C29        -7.1528   -6.9466    6.5086 C.3       1 <0>        -0.1593
     40 C30        -7.6146   -2.4103    1.2228 C.1       1 <0>         0.2159
     41 N7         -7.3072   -1.6472    0.4394 N.1       1 <0>        -0.3457
     42 H3         -0.4460    0.1947    2.5808 H         1 <0>         0.0735
     43 H4          1.1602   -0.5716    2.5478 H         1 <0>         0.0769
     44 H5          0.8973    0.9802    1.7167 H         1 <0>         0.0766
     45 H6          0.2494   -2.8530    1.3043 H         1 <0>         0.1613
     46 H7         -3.0846   -1.0327   -2.4177 H         1 <0>         0.0545
     47 H8         -2.4850   -1.5036   -4.0261 H         1 <0>         0.0802
     48 H9         -2.2019   -2.5644   -2.6251 H         1 <0>         0.0905
     49 H10        -0.2089    1.2135   -2.6732 H         1 <0>         0.0729
     50 H11        -1.4593    0.8946   -3.8992 H         1 <0>         0.0798
     51 H12        -1.9142    1.0608   -2.1864 H         1 <0>         0.0677
     52 H13         0.3831   -2.3388   -3.3792 H         1 <0>         0.0863
     53 H14        -0.2678   -1.2872   -4.6594 H         1 <0>         0.0811
     54 H15         0.9994   -0.6795   -3.5670 H         1 <0>         0.0598
     55 H16         0.6149   -5.1193    1.0540 H         1 <0>         0.0970
     56 H17        -0.7551   -3.9863    1.2680 H         1 <0>         0.1135
     57 H18        -1.0327   -6.1691   -2.1941 H         1 <0>         0.0925
     58 H19         0.4328   -6.5657   -1.2440 H         1 <0>         0.0903
     59 H20        -3.5058   -7.3913    0.1056 H         1 <0>         0.0908
     60 H21        -3.2292   -5.9464   -0.8978 H         1 <0>         0.1233
     61 H22        -3.9894   -7.8742   -2.2737 H         1 <0>         0.1381
     62 H23        -2.3414   -7.3695   -2.7171 H         1 <0>         0.1369
     63 H24        -2.9947   -9.5578   -0.8755 H         1 <0>         0.4254
     64 H25        -0.6693  -10.1219   -1.1050 H         1 <0>         0.1430
     65 H26        -0.4754   -8.6329   -2.0603 H         1 <0>         0.1351
     66 H27         0.1677   -8.2456    0.2974 H         1 <0>         0.1248
     67 H28        -1.4418   -8.7881    0.8320 H         1 <0>         0.0973
     68 H29        -3.0408   -7.0311    2.8791 H         1 <0>         0.4065
     69 H30        -4.7862   -4.8241    3.1229 H         1 <0>         0.0889
     70 H31        -5.4021   -5.8866    1.8345 H         1 <0>         0.0833
     71 H32        -5.3986   -7.8005    3.4111 H         1 <0>         0.1317
     72 H33        -4.7827   -6.7379    4.6995 H         1 <0>         0.1364
     73 H34        -6.1247   -4.3786    2.1453 H         1 <0>         0.1749
     74 H35       -10.0148   -2.5228    2.4726 H         1 <0>         0.1757
     75 H36       -10.7342   -4.1178    4.1465 H         1 <0>         0.1778
     76 H37        -6.9895   -5.9085    6.7981 H         1 <0>         0.0861
     77 H38        -7.8440   -7.4148    7.2094 H         1 <0>         0.1009
     78 H39        -6.2032   -7.4815    6.5228 H         1 <0>         0.1084
     79 H40        -9.7803   -6.3738    5.5680 H         1 <0>         0.4604
     80 H41        -2.5691   -9.7498   -2.4539 H         1 <0>         0.4369
@<TRIPOS>BOND
     1    1    2 1
     2    1   42 1
     3    1   43 1
     4    1   44 1
     5    2    6 2
     6    2    3 1
     7    3    4 2
     8    3   45 1
     9    4    5 1
    10    4   11 1
    11    5    6 1
    12    5    7 1
    13    7    8 1
    14    7    9 1
    15    7   10 1
    16    8   46 1
    17    8   47 1
    18    8   48 1
    19    9   49 1
    20    9   50 1
    21    9   51 1
    22   10   52 1
    23   10   53 1
    24   10   54 1
    25   11   12 2
    26   11   13 am
    27   13   18 1
    28   13   14 1
    29   14   15 1
    30   14   55 1
    31   14   56 1
    32   15   16 1
    33   15   17 1
    34   15   24 1
    35   17   23 1
    36   17   18 1
    37   17   19 1
    38   18   57 1
    39   18   58 1
    40   19   20 1
    41   19   59 1
    42   19   60 1
    43   20   21 1
    44   20   61 1
    45   20   62 1
    46   21   22 1
    47   21   63 1
    48   21   80 1
    49   22   23 1
    50   22   64 1
    51   22   65 1
    52   23   66 1
    53   23   67 1
    54   24   25 2
    55   24   26 am
    56   26   27 1
    57   26   68 1
    58   27   28 1
    59   27   69 1
    60   27   70 1
    61   28   29 1
    62   28   71 1
    63   28   72 1
    64   29   37 1
    65   29   30 2
    66   30   35 ar
    67   30   31 ar
    68   31   32 ar
    69   31   73 1
    70   32   33 ar
    71   32   40 1
    72   33   34 ar
    73   33   74 1
    74   34   35 ar
    75   34   75 1
    76   35   36 2
    77   36   37 1
    78   36   79 1
    79   37   38 1
    80   37   39 1
    81   39   76 1
    82   39   77 1
    83   39   78 1
    84   40   41 3
@<TRIPOS>MOLECULE
ZINC60268848
   57    61     0     0     0
SMALL
USER_CHARGES

@<TRIPOS>ATOM
      1 C1         -0.0187    1.5258    0.0104 C.3       1 <0>        -0.1586
      2 C2          0.0021   -0.0041    0.0020 C.3       1 <0>         0.0675
      3 O1          0.6709   -0.4649   -1.1737 O.3       1 <0>        -0.3503
      4 C3          0.7759   -1.7991   -1.3348 C.2       1 <0>         0.5163
      5 O2          0.3120   -2.5505   -0.4995 O.2       1 <0>        -0.4616
      6 C4          1.4517   -2.3456   -2.5212 C.ar      1 <0>        -0.2014
      7 C5          1.9957   -1.4842   -3.4884 C.ar      1 <0>         0.2630
      8 N1          2.6019   -1.9430   -4.5527 N.ar      1 <0>        -0.4621
      9 C6          2.7394   -3.2570   -4.7818 C.ar      1 <0>         0.1524
     10 C7          3.3958   -3.7200   -5.9335 C.ar      1 <0>        -0.1378
     11 C8          3.5252   -5.0593   -6.1475 C.ar      1 <0>        -0.0185
     12 C9          3.0152   -5.9833   -5.2400 C.ar      1 <0>        -0.0963
     13 C10         2.3718   -5.5699   -4.1115 C.ar      1 <0>        -0.0505
     14 C11         2.2227   -4.1989   -3.8612 C.ar      1 <0>        -0.1091
     15 C12         1.5653   -3.7333   -2.6967 C.ar      1 <0>         0.4158
     16 N2          1.0511   -4.6123   -1.7702 N.pl3     1 <0>        -0.6801
     17 C13         1.8661   -5.0780   -0.6380 C.3       1 <0>         0.1477
     18 C14         1.8049   -6.6085   -0.5912 C.3       1 <0>         0.0392
     19 N3          0.4006   -7.0386   -0.5641 N.3       1 <0>        -0.5392
     20 C15        -0.3027   -6.6396   -1.7905 C.3       1 <0>         0.0284
     21 C16        -0.3299   -5.1057   -1.8831 C.3       1 <0>         0.1507
     22 C17         0.2979   -8.4877   -0.3461 C.3       1 <0>         0.0760
     23 C18        -1.1391   -8.8551   -0.0798 C.2       1 <0>         0.1910
     24 C19        -1.8320   -9.6598   -0.9591 C.2       1 <0>        -0.2195
     25 C20        -3.1617   -9.9895   -0.6953 C.2       1 <0>         0.5250
     26 O3         -3.7800  -10.7020   -1.4704 O.2       1 <0>        -0.4300
     27 N4         -3.7712   -9.5144    0.4317 N.am      1 <0>        -0.4311
     28 C21        -5.0660   -9.7497    0.8273 C.2       1 <0>         0.0360
     29 C22        -5.5468   -9.2264    1.9548 C.2       1 <0>        -0.1344
     30 S1         -4.1355   -8.3202    2.5685 S.3       1 <0>         0.3214
     31 C23        -3.0101   -8.7226    1.2496 C.cat     1 <0>         0.3079
     32 N5         -1.7600   -8.4132    1.0109 N.pl3     1 <0>        -0.4761
     33 H1          1.0039    1.9031    0.0027 H         1 <0>         0.0713
     34 H2         -0.5459    1.8868   -0.8726 H         1 <0>         0.0707
     35 H3         -0.5289    1.8773    0.9072 H         1 <0>         0.0905
     36 H4          0.5293   -0.3651    0.8851 H         1 <0>         0.0764
     37 H5         -1.0205   -0.3814    0.0098 H         1 <0>         0.0750
     38 H6          1.9111   -0.4164   -3.3499 H         1 <0>         0.2248
     39 H7          3.7967   -3.0163   -6.6481 H         1 <0>         0.1648
     40 H8          4.0311   -5.4094   -7.0351 H         1 <0>         0.1631
     41 H9          3.1302   -7.0398   -5.4323 H         1 <0>         0.1568
     42 H10         1.9791   -6.2949   -3.4141 H         1 <0>         0.1528
     43 H11         2.8989   -4.7569   -0.7736 H         1 <0>         0.0839
     44 H12         1.4710   -4.6672    0.2911 H         1 <0>         0.0904
     45 H13         2.2942   -7.0192   -1.4744 H         1 <0>         0.0530
     46 H14         2.3120   -6.9656    0.3052 H         1 <0>         0.1052
     47 H15         0.2159   -7.0499   -2.6570 H         1 <0>         0.0559
     48 H16        -1.3241   -7.0193   -1.7640 H         1 <0>         0.0868
     49 H17        -0.9320   -4.6975   -1.0714 H         1 <0>         0.0870
     50 H18        -0.7497   -4.8028   -2.8423 H         1 <0>         0.0812
     51 H19         0.6492   -9.0144   -1.2334 H         1 <0>         0.1002
     52 H20         0.9100   -8.7705    0.5104 H         1 <0>         0.1283
     53 H21        -1.3474  -10.0332   -1.8491 H         1 <0>         0.2031
     54 H22        -5.7046  -10.3685    0.2143 H         1 <0>         0.2221
     55 H23        -6.5327   -9.3243    2.3848 H         1 <0>         0.2529
     56 H24         2.9629   -1.3134   -5.1963 H         1 <0>         0.4557
     57 H25        -1.2799   -7.8497    1.6377 H         1 <0>         0.4663
@<TRIPOS>BOND
     1    1    2 1
     2    1   33 1
     3    1   34 1
     4    1   35 1
     5    2    3 1
     6    2   36 1
     7    2   37 1
     8    3    4 1
     9    4    5 2
    10    4    6 1
    11    6   15 ar
    12    6    7 ar
    13    7    8 ar
    14    7   38 1
    15    8    9 ar
    16    8   56 1
    17    9   14 ar
    18    9   10 ar
    19   10   11 ar
    20   10   39 1
    21   11   12 ar
    22   11   40 1
    23   12   13 ar
    24   12   41 1
    25   13   14 ar
    26   13   42 1
    27   14   15 ar
    28   15   16 1
    29   16   21 1
    30   16   17 1
    31   17   18 1
    32   17   43 1
    33   17   44 1
    34   18   19 1
    35   18   45 1
    36   18   46 1
    37   19   20 1
    38   19   22 1
    39   20   21 1
    40   20   47 1
    41   20   48 1
    42   21   49 1
    43   21   50 1
    44   22   23 1
    45   22   51 1
    46   22   52 1
    47   23   32 1
    48   23   24 2
    49   24   25 1
    50   24   53 1
    51   25   26 2
    52   25   27 am
    53   27   31 1
    54   27   28 1
    55   28   29 2
    56   28   54 1
    57   29   30 1
    58   29   55 1
    59   30   31 1
    60   31   32 2
    61   32   57 1
@<TRIPOS>MOLECULE
ZINC63694333
   58    62     0     0     0
SMALL
USER_CHARGES

@<TRIPOS>ATOM
      1 C1         -0.0167    1.3781    0.0096 C.ar      1 <0>        -0.1057
      2 C2          1.1709    2.0855    0.0021 C.ar      1 <0>        -0.1189
      3 C3          2.3773    1.4107   -0.0130 C.ar      1 <0>        -0.1126
      4 C4          2.3960    0.0285   -0.0201 C.ar      1 <0>        -0.0945
      5 C5          1.2084   -0.6789   -0.0117 C.ar      1 <0>        -0.0852
      6 C6          0.0021   -0.0041    0.0020 C.ar      1 <0>        -0.1205
      7 C7          3.7112   -0.7071   -0.0376 C.3       1 <0>         0.0877
      8 H1          4.5113   -0.0510   -0.3801 H         1 <0>         0.0803
      9 C8          4.0364   -1.2753    1.3679 C.3       1 <0>        -0.1052
     10 C9          4.9522   -2.4729    1.0060 C.3       1 <0>         0.0244
     11 H2          5.9778   -2.1378    0.8508 H         1 <0>         0.0799
     12 N1          4.3761   -2.9863   -0.2568 N.3       1 <0>        -0.4666
     13 N2          3.6226   -1.9105   -0.8944 N.3       1 <0>        -0.2924
     14 C10         4.1321   -1.6343   -2.2443 C.3       1 <0>         0.0388
     15 H3          3.5966   -0.7876   -2.6737 H         1 <0>         0.1284
     16 C11         3.9431   -2.8738   -3.1345 C.3       1 <0>        -0.1163
     17 C12         4.7538   -2.7123   -4.4430 C.3       1 <0>        -0.5731
     18 S1          6.1398   -1.6190   -3.9271 S.o2      1 <0>         2.3783
     19 O1          6.0587   -0.3978   -4.6491 O.2       1 <0>        -0.9184
     20 O2          7.3493   -2.3647   -3.9481 O.2       1 <0>        -0.9296
     21 C13         5.6528   -1.3145   -2.1766 C.3       1 <0>        -0.6413
     22 C14         4.8980   -3.5256    2.0831 C.2       1 <0>         0.5354
     23 O3          4.2036   -4.5089    1.9355 O.2       1 <0>        -0.4517
     24 N3          5.6210   -3.3742    3.2103 N.am      1 <0>        -0.7709
     25 C15         5.5683   -4.3975    4.2574 C.3       1 <0>         0.1035
     26 C16         6.4735   -3.9850    5.4198 C.3       1 <0>         0.2433
     27 N4          6.0709   -2.6681    5.9294 N.pl3     1 <0>        -0.4660
     28 C17         7.0847   -1.8652    5.7809 C.ar      1 <0>         0.3165
     29 C18         7.2890   -0.4450    6.0977 C.ar      1 <0>        -0.1400
     30 C19         8.4756    0.1334    5.8244 C.ar      1 <0>         0.0382
     31 C20         9.5448   -0.5692    5.2406 C.ar      1 <0>         0.0372
     32 C21         9.4633   -1.8736    4.9104 C.ar      1 <0>        -0.1395
     33 C22         8.2165   -2.6090    5.1634 C.ar      1 <0>         0.3166
     34 N5          7.8587   -3.8429    4.9539 N.pl3     1 <0>        -0.4658
     35 H4         -0.9591    1.9053    0.0259 H         1 <0>         0.1271
     36 H5          1.1563    3.1654    0.0076 H         1 <0>         0.1267
     37 H6          3.3051    1.9634   -0.0196 H         1 <0>         0.1182
     38 H7          1.2231   -1.7588   -0.0176 H         1 <0>         0.1331
     39 H8         -0.9258   -0.5567    0.0082 H         1 <0>         0.1268
     40 H9          4.5705   -0.5424    1.9727 H         1 <0>         0.0874
     41 H10         3.1315   -1.6128    1.8731 H         1 <0>         0.1000
     42 H11         5.0991   -3.3315   -0.8701 H         1 <0>         0.3371
     43 H12         4.2898   -3.7588   -2.6009 H         1 <0>         0.0924
     44 H13         2.8863   -2.9886   -3.3753 H         1 <0>         0.1146
     45 H14         5.1292   -3.6763   -4.7865 H         1 <0>         0.1508
     46 H15         4.1508   -2.2339   -5.2147 H         1 <0>         0.1495
     47 H16         5.8250   -0.2757   -1.8948 H         1 <0>         0.1464
     48 H17         6.1690   -1.9951   -1.4996 H         1 <0>         0.1255
     49 H18         6.1764   -2.5877    3.3284 H         1 <0>         0.3862
     50 H19         4.5433   -4.5001    4.6138 H         1 <0>         0.1523
     51 H20         5.9090   -5.3502    3.8519 H         1 <0>         0.1513
     52 H21         6.4210   -4.7273    6.2162 H         1 <0>         0.2560
     53 H22         6.4936    0.1318    6.5462 H         1 <0>         0.2079
     54 H23         8.6104    1.1780    6.0630 H         1 <0>         0.2057
     55 H24        10.4680   -0.0425    5.0487 H         1 <0>         0.2057
     56 H25        10.3088   -2.3749    4.4629 H         1 <0>         0.2077
     57 H26         5.2075   -2.4384    6.3071 H         1 <0>         0.4987
     58 H27         8.4069   -4.5407    4.5622 H         1 <0>         0.4986
@<TRIPOS>BOND
     1    1    6 ar
     2    1    2 ar
     3    1   35 1
     4    2    3 ar
     5    2   36 1
     6    3    4 ar
     7    3   37 1
     8    4    5 ar
     9    4    7 1
    10    5    6 ar
    11    5   38 1
    12    6   39 1
    13    7    8 1
    14    7   13 1
    15    7    9 1
    16    9   10 1
    17    9   40 1
    18    9   41 1
    19   10   11 1
    20   10   12 1
    21   10   22 1
    22   12   13 1
    23   12   42 1
    24   13   14 1
    25   14   15 1
    26   14   21 1
    27   14   16 1
    28   16   17 1
    29   16   43 1
    30   16   44 1
    31   17   18 1
    32   17   45 1
    33   17   46 1
    34   18   19 2
    35   18   20 2
    36   18   21 1
    37   21   47 1
    38   21   48 1
    39   22   23 2
    40   22   24 am
    41   24   25 1
    42   24   49 1
    43   25   26 1
    44   25   50 1
    45   25   51 1
    46   26   34 1
    47   26   27 1
    48   26   52 1
    49   27   28 2
    50   27   57 1
    51   28   33 ar
    52   28   29 ar
    53   29   30 ar
    54   29   53 1
    55   30   31 ar
    56   30   54 1
    57   31   32 ar
    58   31   55 1
    59   32   33 ar
    60   32   56 1
    61   33   34 2
    62   34   58 1
@<TRIPOS>MOLECULE
ZINC06015018
   72    76     0     0     0
SMALL
USER_CHARGES
3-[[2-furylmethyl-[(3-methoxyphenyl)methyl]amino]-(1-tert-butyltetrazol-5-yl)-methyl]-6-methoxy-1H-quinolin-2-one
@<TRIPOS>ATOM
      1 C1          0.5272   -1.1554    1.7972 C.3       1 <0>        -0.1540
      2 C2          1.8135   -0.5364    1.2468 C.3       1 <0>         0.1536
      3 C3          2.1236   -1.1397   -0.1246 C.3       1 <0>        -0.1745
      4 C4          2.9702   -0.8272    2.2052 C.3       1 <0>        -0.1769
      5 N1          1.6409    0.9124    1.1152 N.pl3     1 <0>        -0.2760
      6 C5          2.5831    1.7995    0.7451 C.2       1 <0>         0.1213
      7 N2          2.0137    2.9800    0.7568 N.2       1 <0>        -0.2349
      8 N3          0.7859    2.8261    1.1154 N.2       1 <0>        -0.0627
      9 N4          0.5572    1.5779    1.3328 N.2       1 <0>        -0.0407
     10 C6          4.0149    1.4946    0.3871 C.3       1 <0>         0.2053
     11 H1          4.1253    0.4247    0.2106 H         1 <0>         0.1616
     12 C7          4.9159    1.9124    1.5206 C.2       1 <0>        -0.2714
     13 C8          5.6136    0.9757    2.2093 C.2       1 <0>         0.0610
     14 C9          6.4838    1.4142    3.3021 C.ar      1 <0>        -0.1139
     15 C10         7.2311    0.4933    4.0440 C.ar      1 <0>        -0.0845
     16 C11         8.0377    0.9404    5.0709 C.ar      1 <0>         0.1100
     17 C12         8.1090    2.2994    5.3685 C.ar      1 <0>        -0.1233
     18 C13         7.3777    3.2155    4.6456 C.ar      1 <0>        -0.1205
     19 C14         6.5588    2.7863    3.6062 C.ar      1 <0>         0.1662
     20 N5          5.8186    3.6888    2.8697 N.am      1 <0>        -0.6172
     21 H2          5.8726    4.6635    3.0865 H         1 <0>         0.4339
     22 C15         5.0260    3.2765    1.8650 C.2       1 <0>         0.5393
     23 O1          4.3868    4.1017    1.2356 O.2       1 <0>        -0.5160
     24 O2          8.7660    0.0501    5.7957 O.3       1 <0>        -0.3093
     25 C16         9.5802    0.5790    6.8443 C.3       1 <0>         0.0211
     26 C17         3.6009    1.7693   -1.9826 C.3       1 <0>         0.0400
     27 C18         2.2563    2.4497   -1.9832 C.ar      1 <0>        -0.1068
     28 C19         2.1227    3.7155   -2.5239 C.ar      1 <0>        -0.1233
     29 C20         0.8904    4.3420   -2.5267 C.ar      1 <0>        -0.0602
     30 C21        -0.2112    3.7044   -1.9892 C.ar      1 <0>        -0.1698
     31 C22        -0.0798    2.4349   -1.4459 C.ar      1 <0>         0.1540
     32 C23         1.1571    1.8062   -1.4490 C.ar      1 <0>        -0.1703
     33 O3         -1.1620    1.8055   -0.9170 O.3       1 <0>        -0.3043
     34 C24        -2.4046    2.5102   -0.9540 C.3       1 <0>         0.0265
     35 C25         5.8245    2.1253   -1.0928 C.3       1 <0>         0.0902
     36 C26         6.2319    3.1792   -2.0900 C.2       1 <0>        -0.1085
     37 C27         6.6459    4.4243   -1.7937 C.2       1 <0>        -0.1273
     38 C28         6.9228    5.0670   -3.0222 C.2       1 <0>        -0.2170
     39 C29         6.6614    4.1763   -3.9957 C.2       1 <0>         0.0149
     40 O4          6.2488    3.0327   -3.4249 O.3       1 <0>        -0.1682
     41 H3         -0.2968   -0.9482    1.1144 H         1 <0>         0.0833
     42 H4          0.6556   -2.2334    1.8951 H         1 <0>         0.0922
     43 H5          0.3063   -0.7256    2.7742 H         1 <0>         0.0778
     44 H6          3.0207   -0.6736   -0.5322 H         1 <0>         0.0537
     45 H7          2.2864   -2.2125   -0.0213 H         1 <0>         0.1095
     46 H8          1.2845   -0.9627   -0.7975 H         1 <0>         0.0865
     47 H9          2.7493   -0.3974    3.1822 H         1 <0>         0.0818
     48 H10         3.0986   -1.9052    2.3031 H         1 <0>         0.1075
     49 H11         3.8866   -0.3862    1.8130 H         1 <0>         0.0577
     50 H12         5.5318   -0.0708    1.9552 H         1 <0>         0.1630
     51 H13         7.1775   -0.5607    3.8145 H         1 <0>         0.1522
     52 H14         8.7433    2.6378    6.1745 H         1 <0>         0.1487
     53 H15         7.4406    4.2668    4.8849 H         1 <0>         0.1474
     54 H16        10.3045    1.2772    6.4248 H         1 <0>         0.0613
     55 H17         8.9503    1.0988    7.5662 H         1 <0>         0.0611
     56 H18        10.1066   -0.2356    7.3416 H         1 <0>         0.1102
     57 H19         4.1318    2.0130   -2.9029 H         1 <0>         0.1477
     58 H20         3.4621    0.6901   -1.9182 H         1 <0>         0.1326
     59 H21         2.9826    4.2154   -2.9448 H         1 <0>         0.1272
     60 H22         0.7886    5.3304   -2.9499 H         1 <0>         0.1368
     61 H23        -1.1739    4.1939   -1.9923 H         1 <0>         0.1382
     62 H24         1.2610    0.8158   -1.0309 H         1 <0>         0.1294
     63 H25        -2.3093    3.4441   -0.4001 H         1 <0>         0.0628
     64 H26        -2.6687    2.7269   -1.9890 H         1 <0>         0.0572
     65 H27        -3.1836    1.8970   -0.5010 H         1 <0>         0.1065
     66 H28         6.3759    2.2713   -0.1640 H         1 <0>         0.1495
     67 H29         6.0476    1.1376   -1.4964 H         1 <0>         0.1502
     68 H30         6.7469    4.8512   -0.8069 H         1 <0>         0.1581
     69 H31         7.2760    6.0791   -3.1538 H         1 <0>         0.1635
     70 H32         6.7699    4.3496   -5.0561 H         1 <0>         0.2189
     71 N6          4.3772    2.2598   -0.8244 N.4       1 <0>        -0.3918
     72 H33         4.1572    3.2509   -0.6711 H         1 <0>         0.4518
@<TRIPOS>BOND
     1    1    2 1
     2    1   41 1
     3    1   42 1
     4    1   43 1
     5    2    3 1
     6    2    4 1
     7    2    5 1
     8    3   44 1
     9    3   45 1
    10    3   46 1
    11    4   47 1
    12    4   48 1
    13    4   49 1
    14    5    9 1
    15    5    6 1
    16    6    7 2
    17    6   10 1
    18    7    8 1
    19    8    9 2
    20   10   11 1
    21   10   12 1
    22   10   71 1
    23   12   22 1
    24   12   13 2
    25   13   14 1
    26   13   50 1
    27   14   19 ar
    28   14   15 ar
    29   15   16 ar
    30   15   51 1
    31   16   17 ar
    32   16   24 1
    33   17   18 ar
    34   17   52 1
    35   18   19 ar
    36   18   53 1
    37   19   20 1
    38   20   21 1
    39   20   22 am
    40   22   23 2
    41   24   25 1
    42   25   54 1
    43   25   55 1
    44   25   56 1
    45   26   27 1
    46   26   57 1
    47   26   58 1
    48   26   71 1
    49   27   32 ar
    50   27   28 ar
    51   28   29 ar
    52   28   59 1
    53   29   30 ar
    54   29   60 1
    55   30   31 ar
    56   30   61 1
    57   31   32 ar
    58   31   33 1
    59   32   62 1
    60   33   34 1
    61   34   63 1
    62   34   64 1
    63   34   65 1
    64   35   36 1
    65   35   66 1
    66   35   67 1
    67   35   71 1
    68   36   40 1
    69   36   37 2
    70   37   38 1
    71   37   68 1
    72   38   39 2
    73   38   69 1
    74   39   40 1
    75   39   70 1
    76   71   72 1
@<TRIPOS>MOLECULE
ZINC12833510
   69    73     0     0     0
SMALL
USER_CHARGES
3-[[(1-cyclopentyltetrazol-5-yl)methyl-[(2-methoxyphenyl)methyl]amino]methyl]-6-ethoxy-1H-quinolin-2-one
@<TRIPOS>ATOM
      1 C1         -7.0149   -2.9537   -4.8269 C.3       1 <0>        -0.1559
      2 C2         -6.1997   -2.7911   -3.5424 C.3       1 <0>         0.0512
      3 O1         -4.8066   -2.7804   -3.8605 O.3       1 <0>        -0.3089
      4 C3         -3.9379   -2.6424   -2.8238 C.ar      1 <0>         0.1158
      5 C4         -4.4237   -2.5192   -1.5240 C.ar      1 <0>        -0.1260
      6 C5         -3.5586   -2.3787   -0.4617 C.ar      1 <0>        -0.1188
      7 C6         -2.1852   -2.3578   -0.6820 C.ar      1 <0>         0.1596
      8 C7         -1.6901   -2.4818   -1.9935 C.ar      1 <0>        -0.1132
      9 C8         -2.5789   -2.6245   -3.0644 C.ar      1 <0>        -0.0873
     10 C9         -0.2424   -2.4591   -2.2111 C.2       1 <0>         0.0640
     11 C10         0.5725   -2.3188   -1.1364 C.2       1 <0>        -0.2779
     12 C11         0.0260   -2.2039    0.1596 C.2       1 <0>         0.5401
     13 O2          0.7767   -2.0841    1.1125 O.2       1 <0>        -0.5374
     14 N1         -1.3019   -2.2178    0.3692 N.am      1 <0>        -0.6154
     15 H1         -1.6441   -2.1321    1.2728 H         1 <0>         0.4265
     16 C12         2.0672   -2.2917   -1.3261 C.3       1 <0>         0.0639
     17 C13         3.8414   -0.8312   -2.0891 C.3       1 <0>         0.0471
     18 C14         3.7110   -1.1654   -3.5528 C.ar      1 <0>        -0.1912
     19 C15         4.1324   -2.3949   -4.0215 C.ar      1 <0>        -0.0535
     20 C16         4.0086   -2.7038   -5.3633 C.ar      1 <0>        -0.1471
     21 C17         3.4728   -1.7797   -6.2415 C.ar      1 <0>        -0.0446
     22 C18         3.0549   -0.5472   -5.7788 C.ar      1 <0>        -0.2003
     23 C19         3.1732   -0.2367   -4.4316 C.ar      1 <0>         0.1458
     24 O3          2.7632    0.9755   -3.9740 O.3       1 <0>        -0.3303
     25 C20         2.2193    1.8819   -4.9356 C.3       1 <0>         0.0227
     26 C21         2.5304   -0.2297   -0.1443 C.3       1 <0>         0.0875
     27 C22         2.7586    1.2472   -0.3386 C.2       1 <0>         0.1090
     28 N2          3.9155    1.8623   -0.3736 N.2       1 <0>        -0.2582
     29 N3          3.6928    3.1188   -0.5517 N.2       1 <0>        -0.0548
     30 N4          2.4242    3.3204   -0.6365 N.2       1 <0>        -0.0488
     31 N5          1.8142    2.1902   -0.5132 N.pl3     1 <0>        -0.2751
     32 C23         0.3656    1.9746   -0.5499 C.3       1 <0>         0.1262
     33 C24        -0.3216    2.8144    0.5466 C.3       1 <0>        -0.1309
     34 C25        -0.7692    4.1034   -0.1879 C.3       1 <0>        -0.1276
     35 C26        -1.2199    3.5708   -1.5707 C.3       1 <0>        -0.1218
     36 C27        -0.2049    2.4554   -1.8956 C.3       1 <0>        -0.1329
     37 H2         -8.0775   -2.9619   -4.5843 H         1 <0>         0.0849
     38 H3         -6.8022   -2.1230   -5.4999 H         1 <0>         0.0691
     39 H4         -6.7457   -3.8921   -5.3117 H         1 <0>         0.0698
     40 H5         -6.4124   -3.6218   -2.8695 H         1 <0>         0.0676
     41 H6         -6.4689   -1.8527   -3.0576 H         1 <0>         0.0669
     42 H7         -5.4891   -2.5345   -1.3476 H         1 <0>         0.1479
     43 H8         -3.9463   -2.2843    0.5419 H         1 <0>         0.1472
     44 H9         -2.2041   -2.7205   -4.0727 H         1 <0>         0.1505
     45 H10         0.1676   -2.5518   -3.2060 H         1 <0>         0.1578
     46 H11         2.3289   -2.8417   -2.2300 H         1 <0>         0.1458
     47 H12         2.5511   -2.7548   -0.4661 H         1 <0>         0.1557
     48 H13         4.2453    0.1753   -1.9808 H         1 <0>         0.1425
     49 H14         4.5124   -1.5453   -1.6118 H         1 <0>         0.1475
     50 H15         4.5550   -3.1168   -3.3384 H         1 <0>         0.1433
     51 H16         4.3348   -3.6670   -5.7271 H         1 <0>         0.1398
     52 H17         3.3813   -2.0217   -7.2900 H         1 <0>         0.1389
     53 H18         2.6368    0.1744   -6.4650 H         1 <0>         0.1402
     54 H19         1.9324    2.8090   -4.4393 H         1 <0>         0.1054
     55 H20         2.9683    2.0949   -5.6983 H         1 <0>         0.0692
     56 H21         1.3425    1.4333   -5.4025 H         1 <0>         0.0656
     57 H22         3.3306   -0.6434    0.4694 H         1 <0>         0.1742
     58 H23         1.5731   -0.3872    0.3525 H         1 <0>         0.1578
     59 H24         0.1420    0.9176   -0.4058 H         1 <0>         0.1081
     60 H25        -1.1855    2.2845    0.9477 H         1 <0>         0.0979
     61 H26         0.3839    3.0533    1.3424 H         1 <0>         0.0827
     62 H27         0.0654    4.7964   -0.2941 H         1 <0>         0.0822
     63 H28        -1.6005    4.5791    0.3325 H         1 <0>         0.0835
     64 H29        -1.1700    4.3618   -2.3189 H         1 <0>         0.0817
     65 H30        -2.2290    3.1629   -1.5121 H         1 <0>         0.0768
     66 H31         0.5959    2.8500   -2.5211 H         1 <0>         0.0845
     67 H32        -0.7054    1.6318   -2.4047 H         1 <0>         0.0857
     68 N6          2.5010   -0.8858   -1.4685 N.4       1 <0>        -0.3923
     69 H33         1.8339   -0.3904   -2.0715 H         1 <0>         0.4203
@<TRIPOS>BOND
     1    1    2 1
     2    1   37 1
     3    1   38 1
     4    1   39 1
     5    2    3 1
     6    2   40 1
     7    2   41 1
     8    3    4 1
     9    4    9 ar
    10    4    5 ar
    11    5    6 ar
    12    5   42 1
    13    6    7 ar
    14    6   43 1
    15    7   14 1
    16    7    8 ar
    17    8    9 ar
    18    8   10 1
    19    9   44 1
    20   10   11 2
    21   10   45 1
    22   11   12 1
    23   11   16 1
    24   12   13 2
    25   12   14 am
    26   14   15 1
    27   16   46 1
    28   16   47 1
    29   16   68 1
    30   17   18 1
    31   17   48 1
    32   17   49 1
    33   17   68 1
    34   18   23 ar
    35   18   19 ar
    36   19   20 ar
    37   19   50 1
    38   20   21 ar
    39   20   51 1
    40   21   22 ar
    41   21   52 1
    42   22   23 ar
    43   22   53 1
    44   23   24 1
    45   24   25 1
    46   25   54 1
    47   25   55 1
    48   25   56 1
    49   26   27 1
    50   26   57 1
    51   26   58 1
    52   26   68 1
    53   27   31 1
    54   27   28 2
    55   28   29 1
    56   29   30 2
    57   30   31 1
    58   31   32 1
    59   32   36 1
    60   32   33 1
    61   32   59 1
    62   33   34 1
    63   33   60 1
    64   33   61 1
    65   34   35 1
    66   34   62 1
    67   34   63 1
    68   35   36 1
    69   35   64 1
    70   35   65 1
    71   36   66 1
    72   36   67 1
    73   68   69 1
@<TRIPOS>MOLECULE
ZINC06443520
   65    70     0     0     0
SMALL
USER_CHARGES
3-[[1,3-benzodioxol-5-ylmethyl-[[1-[[(2S)-tetrahydrofuran-2-yl]methyl]tetrazol-5-yl]methyl]amino]methyl]-8-methyl-1H-quinolin-2-one
@<TRIPOS>ATOM
      1 C1          0.4157   -0.7761    1.3802 C.3       1 <0>        -0.1230
      2 C2          0.1486    0.7014    1.2504 C.ar      1 <0>        -0.1273
      3 C3         -1.1277    1.1918    1.4259 C.ar      1 <0>        -0.0396
      4 C4         -1.3860    2.5509    1.3137 C.ar      1 <0>        -0.1360
      5 C5         -0.3808    3.4275    1.0167 C.ar      1 <0>        -0.0481
      6 C6          0.9209    2.9519    0.8292 C.ar      1 <0>        -0.1524
      7 C7          1.1878    1.5746    0.9473 C.ar      1 <0>         0.1983
      8 N1          2.4727    1.1109    0.7610 N.am      1 <0>        -0.6169
      9 H1          2.6549    0.1617    0.8427 H         1 <0>         0.4254
     10 C8          3.4770    1.9556    0.4681 C.2       1 <0>         0.5478
     11 O1          4.6006    1.5106    0.3103 O.2       1 <0>        -0.5478
     12 C9          3.2627    3.3447    0.3391 C.2       1 <0>        -0.2819
     13 C10         2.0214    3.8630    0.5095 C.2       1 <0>         0.0646
     14 C11         4.4178    4.2550    0.0102 C.3       1 <0>         0.0589
     15 C12         4.4258    5.5385    2.0633 C.3       1 <0>         0.0443
     16 C13         4.3771    6.8666    1.3528 C.ar      1 <0>        -0.1498
     17 C14         5.3204    7.8364    1.6379 C.ar      1 <0>        -0.0735
     18 C15         5.2826    9.0546    0.9856 C.ar      1 <0>        -0.0958
     19 C16         4.2924    9.3101    0.0509 C.ar      1 <0>         0.0749
     20 C17         3.3391    8.3352   -0.2324 C.ar      1 <0>         0.0412
     21 C18         3.3861    7.1148    0.4216 C.ar      1 <0>        -0.0934
     22 O2          2.4820    8.8242   -1.1756 O.3       1 <0>        -0.3004
     23 C19         3.1593    9.9507   -1.7634 C.3       1 <0>         0.2108
     24 O3          4.0326   10.4099   -0.7147 O.3       1 <0>        -0.2963
     25 C20         6.5098    5.0564    0.9287 C.3       1 <0>         0.0874
     26 C21         7.3710    4.9689    2.1623 C.2       1 <0>         0.0969
     27 N2          7.4725    5.8673    3.1113 N.2       1 <0>        -0.2622
     28 N3          8.3041    5.4251    3.9905 N.2       1 <0>        -0.0551
     29 N4          8.7417    4.2715    3.6231 N.2       1 <0>        -0.0319
     30 N5          8.1898    3.9555    2.5005 N.pl3     1 <0>        -0.2714
     31 C22         8.4129    2.7252    1.7371 C.3       1 <0>         0.0828
     32 C23         9.5724    2.9339    0.7609 C.3       1 <0>         0.0643
     33 H2          9.3790    3.8077    0.1387 H         1 <0>         0.0898
     34 C24         9.7404    1.6827   -0.1278 C.3       1 <0>        -0.1477
     35 C25        11.2849    1.5570   -0.2313 C.3       1 <0>        -0.1559
     36 C26        11.7155    2.0616    1.1690 C.3       1 <0>         0.0461
     37 O4         10.7931    3.1155    1.4879 O.3       1 <0>        -0.3656
     38 H3          0.6696   -1.0099    2.4141 H         1 <0>         0.0821
     39 H4         -0.4751   -1.3332    1.0899 H         1 <0>         0.0861
     40 H5          1.2457   -1.0537    0.7305 H         1 <0>         0.0646
     41 H6         -1.9343    0.5118    1.6568 H         1 <0>         0.1434
     42 H7         -2.3912    2.9183    1.4582 H         1 <0>         0.1420
     43 H8         -0.5906    4.4831    0.9275 H         1 <0>         0.1434
     44 H9          1.8486    4.9247    0.4127 H         1 <0>         0.1544
     45 H10         5.0813    3.7587   -0.6980 H         1 <0>         0.1493
     46 H11         4.0394    5.1770   -0.4313 H         1 <0>         0.1482
     47 H12         3.4106    5.1787    2.2308 H         1 <0>         0.1376
     48 H13         4.9319    5.6573    3.0213 H         1 <0>         0.1438
     49 H14         6.0905    7.6405    2.3693 H         1 <0>         0.1631
     50 H15         6.0232    9.8087    1.2073 H         1 <0>         0.1522
     51 H16         2.6483    6.3568    0.2036 H         1 <0>         0.1374
     52 H17         3.7368    9.6390   -2.6337 H         1 <0>         0.0965
     53 H18         2.4450   10.7281   -2.0349 H         1 <0>         0.1440
     54 H19         6.9443    4.4447    0.1381 H         1 <0>         0.1549
     55 H20         6.4545    6.0932    0.5971 H         1 <0>         0.1730
     56 H21         8.6558    1.9121    2.4212 H         1 <0>         0.1329
     57 H22         7.5100    2.4742    1.1805 H         1 <0>         0.1244
     58 H23         9.3111    0.8042    0.3539 H         1 <0>         0.0887
     59 H24         9.2975    1.8428   -1.1108 H         1 <0>         0.0946
     60 H25        11.6795    2.1991   -1.0187 H         1 <0>         0.0850
     61 H26        11.5852    0.5205   -0.3848 H         1 <0>         0.0944
     62 H27        12.7342    2.4478    1.1352 H         1 <0>         0.0960
     63 H28        11.6390    1.2575    1.9009 H         1 <0>         0.0694
     64 N6          5.1619    4.5445    1.2540 N.4       1 <0>        -0.3936
     65 H29         5.2562    3.6774    1.7957 H         1 <0>         0.4307
@<TRIPOS>BOND
     1    1    2 1
     2    1   38 1
     3    1   39 1
     4    1   40 1
     5    2    7 ar
     6    2    3 ar
     7    3    4 ar
     8    3   41 1
     9    4    5 ar
    10    4   42 1
    11    5    6 ar
    12    5   43 1
    13    6   13 1
    14    6    7 ar
    15    7    8 1
    16    8    9 1
    17    8   10 am
    18   10   11 2
    19   10   12 1
    20   12   13 2
    21   12   14 1
    22   13   44 1
    23   14   45 1
    24   14   46 1
    25   14   64 1
    26   15   16 1
    27   15   47 1
    28   15   48 1
    29   15   64 1
    30   16   21 ar
    31   16   17 ar
    32   17   18 ar
    33   17   49 1
    34   18   19 ar
    35   18   50 1
    36   19   24 1
    37   19   20 ar
    38   20   21 ar
    39   20   22 1
    40   21   51 1
    41   22   23 1
    42   23   24 1
    43   23   52 1
    44   23   53 1
    45   25   26 1
    46   25   54 1
    47   25   55 1
    48   25   64 1
    49   26   30 1
    50   26   27 2
    51   27   28 1
    52   28   29 2
    53   29   30 1
    54   30   31 1
    55   31   32 1
    56   31   56 1
    57   31   57 1
    58   32   33 1
    59   32   37 1
    60   32   34 1
    61   34   35 1
    62   34   58 1
    63   34   59 1
    64   35   36 1
    65   35   60 1
    66   35   61 1
    67   36   37 1
    68   36   62 1
    69   36   63 1
    70   64   65 1
@<TRIPOS>MOLECULE
ZINC21775394
   68    71     0     0     0
SMALL
USER_CHARGES
2-methyl-N-[(2S)-2-(1-methyl-3,4-dihydro-2H-quinolin-6-yl)-2-(4-methylpiperazin-1-yl)ethyl]-5-nitro-benzenesulfonamide
@<TRIPOS>ATOM
      1 C1          2.8270    0.2924    9.0921 C.3       1 <0>        -0.1749
      2 C2          2.3391   -1.0620    9.5377 C.ar      1 <0>         0.0669
      3 C3          2.8180   -1.6182   10.7094 C.ar      1 <0>        -0.1368
      4 C4          2.3750   -2.8630   11.1150 C.ar      1 <0>         0.0022
      5 C5          1.4484   -3.5493   10.3522 C.ar      1 <0>        -0.0694
      6 C6          0.9653   -2.9908    9.1838 C.ar      1 <0>         0.0465
      7 C7          1.4088   -1.7458    8.7779 C.ar      1 <0>        -0.6954
      8 S1          0.7935   -1.0340    7.2882 S.o2      1 <0>         2.6988
      9 O1          0.4066    0.2965    7.6033 O.2       1 <0>        -0.9370
     10 O2         -0.1101   -1.9781    6.7299 O.2       1 <0>        -0.9374
     11 N1          2.0680   -0.9200    6.2371 N.pl3     1 <0>        -1.1150
     12 C8          2.7353   -2.1339    5.7604 C.3       1 <0>         0.1224
     13 C9          3.6127   -1.7935    4.5542 C.3       1 <0>         0.1397
     14 H1          4.3661   -1.0363    4.8167 H         1 <0>         0.0670
     15 C10         2.7470   -1.2822    3.4316 C.ar      1 <0>        -0.1307
     16 C11         2.0535   -2.1718    2.6312 C.ar      1 <0>        -0.0681
     17 C12         1.2653   -1.7021    1.6030 C.ar      1 <0>        -0.1642
     18 C13         1.1608   -0.3309    1.3621 C.ar      1 <0>         0.1444
     19 C14         1.8522    0.5550    2.1695 C.ar      1 <0>        -0.1212
     20 C15         2.6452    0.0750    3.2001 C.ar      1 <0>        -0.0794
     21 C16         1.7685    2.0479    1.9731 C.3       1 <0>        -0.0844
     22 C17         1.1798    2.3534    0.5939 C.3       1 <0>        -0.1256
     23 C18        -0.0666    1.4790    0.4083 C.3       1 <0>         0.0518
     24 N2          0.3535    0.0803    0.3025 N.pl3     1 <0>        -0.4969
     25 C19        -0.8066   -0.8077    0.1492 C.3       1 <0>         0.0177
     26 N3          4.3265   -2.9989    4.1120 N.3       1 <0>        -0.5336
     27 C20         5.1099   -3.5800    5.2112 C.3       1 <0>         0.0153
     28 C21         5.7726   -4.8741    4.7332 C.3       1 <0>         0.0000
     29 N4          6.6300   -4.5837    3.5755 N.4       1 <0>        -0.4023
     30 C22         5.8466   -4.0026    2.4763 C.3       1 <0>         0.0002
     31 C23         5.1838   -2.7085    2.9543 C.3       1 <0>         0.0262
     32 C24         7.3437   -5.7891    3.1333 C.3       1 <0>        -0.0456
     33 N5          0.9739   -4.8825   10.7865 N.pl3     1 <0>         0.0238
     34 O3          0.1579   -5.4873   10.1143 O.2       1 <0>        -0.1473
     35 O4          1.3996   -5.3747   11.8161 O.3       1 <0>        -0.1473
     36 H2          3.5579    0.6762    9.8191 H         1 <0>         0.0969
     37 H3          1.9755    0.9858    9.0273 H         1 <0>         0.1208
     38 H4          3.3037    0.2038    8.1047 H         1 <0>         0.0870
     39 H5          3.5415   -1.0819   11.3055 H         1 <0>         0.1596
     40 H6          2.7524   -3.2995   12.0279 H         1 <0>         0.1649
     41 H7          0.2418   -3.5271    8.5878 H         1 <0>         0.1731
     42 H8          2.5092    0.0666    6.0325 H         1 <0>         0.4437
     43 H9          3.3618   -2.5477    6.5643 H         1 <0>         0.0618
     44 H10         1.9791   -2.8764    5.4658 H         1 <0>         0.1014
     45 H11         2.1295   -3.2339    2.8121 H         1 <0>         0.1280
     46 H12         0.7248   -2.3992    0.9798 H         1 <0>         0.1291
     47 H13         3.1876    0.7678    3.8263 H         1 <0>         0.1194
     48 H14         1.1236    2.4843    2.7501 H         1 <0>         0.0783
     49 H15         2.7757    2.4842    2.0449 H         1 <0>         0.0790
     50 H16         0.9093    3.4182    0.5384 H         1 <0>         0.0827
     51 H17         1.9249    2.1234   -0.1820 H         1 <0>         0.0767
     52 H18        -0.7345    1.6043    1.2733 H         1 <0>         0.0515
     53 H19        -0.5935    1.7815   -0.5087 H         1 <0>         0.0907
     54 H20        -1.4251   -0.4611   -0.6918 H         1 <0>         0.0818
     55 H21        -1.4033   -0.7942    1.0732 H         1 <0>         0.0443
     56 H22        -0.4601   -1.8328   -0.0485 H         1 <0>         0.0809
     57 H23         5.8842   -2.8655    5.5273 H         1 <0>         0.0641
     58 H24         4.4449   -3.7991    6.0596 H         1 <0>         0.1249
     59 H25         6.3825   -5.2956    5.5459 H         1 <0>         0.1363
     60 H26         4.9967   -5.5981    4.4437 H         1 <0>         0.1371
     61 H27         6.5117   -3.7834    1.6280 H         1 <0>         0.1369
     62 H28         5.0724   -4.7171    2.1601 H         1 <0>         0.1362
     63 H29         4.5731   -2.2866    2.1425 H         1 <0>         0.1306
     64 H30         5.9589   -1.9839    3.2446 H         1 <0>         0.0621
     65 H31         7.9765   -5.5437    2.2677 H         1 <0>         0.1250
     66 H32         6.6154   -6.5623    2.8476 H         1 <0>         0.1206
     67 H33         7.9736   -6.1638    3.9535 H         1 <0>         0.1244
     68 H34         7.3811   -3.8426    3.8864 H         1 <0>         0.4399
@<TRIPOS>BOND
     1    1    2 1
     2    1   36 1
     3    1   37 1
     4    1   38 1
     5    2    7 ar
     6    2    3 ar
     7    3    4 ar
     8    3   39 1
     9    4    5 ar
    10    4   40 1
    11    5    6 ar
    12    5   33 1
    13    6    7 ar
    14    6   41 1
    15    7    8 1
    16    8    9 2
    17    8   10 2
    18    8   11 1
    19   11   12 1
    20   11   42 1
    21   12   13 1
    22   12   43 1
    23   12   44 1
    24   13   14 1
    25   13   15 1
    26   13   26 1
    27   15   20 ar
    28   15   16 ar
    29   16   17 ar
    30   16   45 1
    31   17   18 ar
    32   17   46 1
    33   18   24 1
    34   18   19 ar
    35   19   20 ar
    36   19   21 1
    37   20   47 1
    38   21   22 1
    39   21   48 1
    40   21   49 1
    41   22   23 1
    42   22   50 1
    43   22   51 1
    44   23   24 1
    45   23   52 1
    46   23   53 1
    47   24   25 1
    48   25   54 1
    49   25   55 1
    50   25   56 1
    51   26   31 1
    52   26   27 1
    53   27   28 1
    54   27   57 1
    55   27   58 1
    56   28   29 1
    57   28   59 1
    58   28   60 1
    59   29   30 1
    60   29   32 1
    61   29   68 1
    62   30   31 1
    63   30   61 1
    64   30   62 1
    65   31   63 1
    66   31   64 1
    67   32   65 1
    68   32   66 1
    69   32   67 1
    70   33   34 2
    71   33   35 1
@<TRIPOS>MOLECULE
ZINC38625916
   59    61     0     0     0
SMALL
USER_CHARGES

@<TRIPOS>ATOM
      1 C1          7.6974   -4.1762   -4.9649 C.3       1 <0>        -0.1512
      2 C2          6.2027   -3.9304   -5.1804 C.3       1 <0>         0.0572
      3 O1          5.5321   -3.9370   -3.9185 O.3       1 <0>        -0.2990
      4 C3          4.2053   -3.7341   -3.9324 C.2       1 <0>         0.4697
      5 O2          3.6322   -3.5568   -4.9813 O.2       1 <0>        -0.4631
      6 C4          3.4304   -3.7275   -2.6399 C.3       1 <0>         0.1350
      7 H1          4.0203   -4.1867   -1.8467 H         1 <0>         0.2048
      8 C5          3.0613   -2.3104   -2.2610 C.2       1 <0>         0.3360
      9 C6          1.6779   -2.2780   -2.2298 C.ar      1 <0>        -0.2235
     10 C7          0.7529   -1.2453   -1.9429 C.ar      1 <0>         0.0293
     11 C8         -0.5780   -1.5033   -1.9888 C.ar      1 <0>        -0.1384
     12 C9         -1.0677   -2.7718   -2.3150 C.ar      1 <0>         0.0605
     13 C10        -0.2411   -3.8064   -2.6008 C.ar      1 <0>        -0.1803
     14 C11         1.1650   -3.6155   -2.5732 C.ar      1 <0>         0.3426
     15 N1          2.1631   -4.4458   -2.8072 N.pl3     1 <0>        -0.5992
     16 Br1        -1.8009   -0.1135   -1.6031 Br        1 <0>         0.0065
     17 N2          3.9141   -1.2794   -2.0031 N.am      1 <0>        -0.6006
     18 C12         5.2418   -1.5025   -1.9411 C.2       1 <0>         0.4974
     19 O3          5.6863   -2.5962   -2.2172 O.2       1 <0>        -0.4352
     20 C13         6.1739   -0.3926   -1.5285 C.3       1 <0>        -0.1376
     21 C14         7.6151   -0.9061   -1.5402 C.3       1 <0>         0.0672
     22 N3          8.5237    0.1759   -1.1381 N.3       1 <0>        -0.5377
     23 C15         8.5232    1.2597   -2.1297 C.3       1 <0>         0.0340
     24 C16         9.3368    2.4411   -1.5907 C.3       1 <0>         0.1321
     25 N4         10.6692    1.9530   -1.2036 N.am      1 <0>        -0.5999
     26 C17        10.7509    0.7808   -0.3189 C.3       1 <0>         0.1162
     27 C18         9.8816   -0.3352   -0.9080 C.3       1 <0>         0.0429
     28 C19        11.7855    2.5638   -1.6474 C.2       1 <0>         0.6509
     29 O4         11.6994    3.5313   -2.3775 O.2       1 <0>        -0.5671
     30 O5         12.9963    2.1020   -1.2819 O.3       1 <0>        -0.3639
     31 C20        14.1364    2.7979   -1.7895 C.3       1 <0>         0.0794
     32 C21        15.4127    2.1330   -1.2701 C.3       1 <0>        -0.1532
     33 H2          8.1073   -3.3895   -4.3314 H         1 <0>         0.0692
     34 H3          7.8407   -5.1429   -4.4823 H         1 <0>         0.0725
     35 H4          8.2089   -4.1711   -5.9274 H         1 <0>         0.0888
     36 H5          6.0593   -2.9636   -5.6630 H         1 <0>         0.0730
     37 H6          5.7927   -4.7171   -5.8138 H         1 <0>         0.0776
     38 H7          1.1054   -0.2567   -1.6882 H         1 <0>         0.1617
     39 H8         -2.1356   -2.9315   -2.3394 H         1 <0>         0.1700
     40 H9         -0.6511   -4.7743   -2.8487 H         1 <0>         0.1723
     41 H10         3.5656   -0.3849   -1.8642 H         1 <0>         0.4481
     42 H11         6.0791    0.4396   -2.2260 H         1 <0>         0.1166
     43 H12         5.9162   -0.0562   -0.5243 H         1 <0>         0.1304
     44 H13         7.7100   -1.7383   -0.8428 H         1 <0>         0.0934
     45 H14         7.8728   -1.2425   -2.5445 H         1 <0>         0.0503
     46 H15         8.9701    0.9036   -3.0579 H         1 <0>         0.0458
     47 H16         7.4985    1.5796   -2.3183 H         1 <0>         0.0905
     48 H17         9.4362    3.2011   -2.3656 H         1 <0>         0.1028
     49 H18         8.8350    2.8646   -0.7207 H         1 <0>         0.0829
     50 H19        11.7852    0.4432   -0.2530 H         1 <0>         0.1007
     51 H20        10.3850    1.0448    0.6734 H         1 <0>         0.0824
     52 H21         9.8420   -1.1719   -0.2105 H         1 <0>         0.0953
     53 H22        10.3096   -0.6691   -1.8532 H         1 <0>         0.0455
     54 H23        14.1270    2.7648   -2.8790 H         1 <0>         0.0685
     55 H24        14.1063    3.8357   -1.4574 H         1 <0>         0.0701
     56 H25        15.4222    2.1662   -0.1807 H         1 <0>         0.0678
     57 H26        15.4429    1.0953   -1.6023 H         1 <0>         0.0664
     58 H27        16.2824    2.6639   -1.6573 H         1 <0>         0.0848
     59 H28         2.0738   -5.3803   -3.0514 H         1 <0>         0.4607
@<TRIPOS>BOND
     1    1    2 1
     2    1   33 1
     3    1   34 1
     4    1   35 1
     5    2    3 1
     6    2   36 1
     7    2   37 1
     8    3    4 1
     9    4    5 2
    10    4    6 1
    11    6    7 1
    12    6   15 1
    13    6    8 1
    14    8    9 2
    15    8   17 1
    16    9   14 ar
    17    9   10 ar
    18   10   11 ar
    19   10   38 1
    20   11   12 ar
    21   11   16 1
    22   12   13 ar
    23   12   39 1
    24   13   14 ar
    25   13   40 1
    26   14   15 2
    27   15   59 1
    28   17   18 am
    29   17   41 1
    30   18   19 2
    31   18   20 1
    32   20   21 1
    33   20   42 1
    34   20   43 1
    35   21   22 1
    36   21   44 1
    37   21   45 1
    38   22   27 1
    39   22   23 1
    40   23   24 1
    41   23   46 1
    42   23   47 1
    43   24   25 1
    44   24   48 1
    45   24   49 1
    46   25   26 1
    47   25   28 am
    48   26   27 1
    49   26   50 1
    50   26   51 1
    51   27   52 1
    52   27   53 1
    53   28   29 2
    54   28   30 1
    55   30   31 1
    56   31   32 1
    57   31   54 1
    58   31   55 1
    59   32   56 1
    60   32   57 1
    61   32   58 1
@<TRIPOS>MOLECULE
ZINC12099811
   75    78     0     0     0
SMALL
USER_CHARGES
methyl 3-[(2-allyloxyphenyl)methyl]-9-[[(3R)-1-methyl-3-piperidyl]methoxy]-7-oxo-1,2,4,5-tetrahydropyrido[1,2-d][1,4]diazepine-10-carboxylate
@<TRIPOS>ATOM
      1 C1         -5.4763    4.0892    0.4079 C.3       1 <0>        -0.0429
      2 C2         -4.3590    5.9424   -0.6774 C.3       1 <0>        -0.0060
      3 C3         -3.4385    6.3186   -1.8406 C.3       1 <0>        -0.1450
      4 C4         -2.0666    5.6723   -1.6290 C.3       1 <0>        -0.1333
      5 C5         -2.2382    4.1552   -1.5127 C.3       1 <0>        -0.1066
      6 H1         -2.6495    3.7626   -2.4427 H         1 <0>         0.1094
      7 C6         -3.1936    3.8417   -0.3590 C.3       1 <0>        -0.0018
      8 C7         -0.8793    3.5067   -1.2412 C.3       1 <0>         0.0573
      9 O1         -1.0210    2.0848   -1.2440 O.3       1 <0>        -0.3003
     10 C8          0.0962    1.3556   -1.0174 C.2       1 <0>         0.2548
     11 C9          1.3147    1.9665   -0.8004 C.2       1 <0>        -0.3299
     12 C10         2.4361    1.1720   -0.5573 C.2       1 <0>         0.5373
     13 O2          3.5161    1.7132   -0.3842 O.2       1 <0>        -0.5113
     14 N1          2.3658   -0.1787   -0.5068 N.am      1 <0>        -0.4965
     15 C11         1.2171   -0.8221   -0.7495 C.2       1 <0>         0.2288
     16 C12         0.0539   -0.1073   -1.0004 C.2       1 <0>        -0.2093
     17 C13        -1.2123   -0.8152   -1.2479 C.2       1 <0>         0.5273
     18 O3         -2.0328   -0.9222   -0.3576 O.2       1 <0>        -0.4782
     19 O4         -1.4622   -1.3448   -2.4619 O.3       1 <0>        -0.3498
     20 C14        -2.7313   -2.0289   -2.6341 C.3       1 <0>         0.0316
     21 C15         1.1069   -2.3270   -0.7781 C.3       1 <0>        -0.1185
     22 C16         2.1281   -2.9786    0.1520 C.3       1 <0>        -0.0164
     23 C17         3.9055   -1.9994   -1.1573 C.3       1 <0>        -0.0198
     24 C18         3.6038   -0.8824   -0.1567 C.3       1 <0>         0.0522
     25 C19         4.3433   -3.9564    0.1972 C.3       1 <0>         0.0565
     26 C20         3.9365   -5.4004    0.3406 C.ar      1 <0>        -0.1995
     27 C21         3.4112   -5.8554    1.5348 C.ar      1 <0>        -0.0540
     28 C22         3.0378   -7.1798    1.6670 C.ar      1 <0>        -0.1476
     29 C23         3.1885   -8.0525    0.6048 C.ar      1 <0>        -0.0404
     30 C24         3.7123   -7.6023   -0.5913 C.ar      1 <0>        -0.2011
     31 C25         4.0838   -6.2724   -0.7279 C.ar      1 <0>         0.1504
     32 O5          4.5950   -5.8260   -1.9053 O.3       1 <0>        -0.3268
     33 C26         4.7180   -6.7798   -2.9623 C.3       1 <0>         0.0898
     34 C27         5.2988   -6.1081   -4.1799 C.2       1 <0>        -0.1841
     35 C28         6.2545   -6.6938   -4.8579 C.2       1 <0>        -0.1412
     36 H2         -5.1215    4.3918    1.3931 H         1 <0>         0.1240
     37 H3         -6.4284    4.5770    0.1989 H         1 <0>         0.1257
     38 H4         -5.6098    3.0076    0.3862 H         1 <0>         0.1221
     39 H5         -5.3411    6.3892   -0.8323 H         1 <0>         0.1332
     40 H6         -3.9348    6.3126    0.2559 H         1 <0>         0.1320
     41 H7         -3.8690    5.9606   -2.7758 H         1 <0>         0.0912
     42 H8         -3.3285    7.4022   -1.8818 H         1 <0>         0.1195
     43 H9         -1.6188    6.0594   -0.7137 H         1 <0>         0.0890
     44 H10        -1.4210    5.9020   -2.4767 H         1 <0>         0.1013
     45 H11        -3.3291    2.7629   -0.2827 H         1 <0>         0.1335
     46 H12        -2.7749    4.2220    0.5727 H         1 <0>         0.1326
     47 H13        -0.5086    3.8330   -0.2695 H         1 <0>         0.0882
     48 H14        -0.1737    3.8030   -2.0174 H         1 <0>         0.0972
     49 H15         1.3991    3.0431   -0.8183 H         1 <0>         0.1693
     50 H16        -2.7935   -2.8612   -1.9331 H         1 <0>         0.0704
     51 H17        -3.5481   -1.3325   -2.4447 H         1 <0>         0.0680
     52 H18        -2.8050   -2.4066   -3.6539 H         1 <0>         0.1126
     53 H19         0.1038   -2.6170   -0.4653 H         1 <0>         0.1385
     54 H20         1.2782   -2.6777   -1.7958 H         1 <0>         0.1287
     55 H21         2.3555   -2.3046    0.9779 H         1 <0>         0.1453
     56 H22         1.7261   -3.9140    0.5413 H         1 <0>         0.1540
     57 H23         4.9834   -2.1001   -1.2840 H         1 <0>         0.1626
     58 H24         3.4409   -1.7719   -2.1167 H         1 <0>         0.1385
     59 H25         3.5009   -1.3130    0.8393 H         1 <0>         0.1136
     60 H26         4.4304   -0.1719   -0.1543 H         1 <0>         0.1619
     61 H27         5.3185   -3.9000   -0.2864 H         1 <0>         0.1439
     62 H28         4.3995   -3.4951    1.1832 H         1 <0>         0.1387
     63 H29         3.2925   -5.1758    2.3658 H         1 <0>         0.1397
     64 H30         2.6274   -7.5336    2.6013 H         1 <0>         0.1398
     65 H31         2.8960   -9.0867    0.7106 H         1 <0>         0.1405
     66 H32         3.8294   -8.2841   -1.4207 H         1 <0>         0.1413
     67 H33         5.3752   -7.5898   -2.6461 H         1 <0>         0.0779
     68 H34         3.7347   -7.1831   -3.2041 H         1 <0>         0.0795
     69 H35         4.9270   -5.1438   -4.4937 H         1 <0>         0.1186
     70 H36         6.6707   -6.2124   -5.7305 H         1 <0>         0.1155
     71 H37         6.6263   -7.6580   -4.5442 H         1 <0>         0.1053
     72 N2         -4.5022    4.4714   -0.6352 N.4       1 <0>        -0.3952
     73 H38        -4.8437    4.1438   -1.5464 H         1 <0>         0.4295
     74 N3          3.3422   -3.2608   -0.6404 N.4       1 <0>        -0.3988
     75 H39         3.0920   -3.8647   -1.4321 H         1 <0>         0.4360
@<TRIPOS>BOND
     1    1   36 1
     2    1   37 1
     3    1   38 1
     4    1   72 1
     5    2    3 1
     6    2   39 1
     7    2   40 1
     8    2   72 1
     9    3    4 1
    10    3   41 1
    11    3   42 1
    12    4    5 1
    13    4   43 1
    14    4   44 1
    15    5    6 1
    16    5    7 1
    17    5    8 1
    18    7   45 1
    19    7   46 1
    20    7   72 1
    21    8    9 1
    22    8   47 1
    23    8   48 1
    24    9   10 1
    25   10   16 1
    26   10   11 2
    27   11   12 1
    28   11   49 1
    29   12   13 2
    30   12   14 am
    31   14   24 1
    32   14   15 1
    33   15   16 2
    34   15   21 1
    35   16   17 1
    36   17   18 2
    37   17   19 1
    38   19   20 1
    39   20   50 1
    40   20   51 1
    41   20   52 1
    42   21   22 1
    43   21   53 1
    44   21   54 1
    45   22   55 1
    46   22   56 1
    47   22   74 1
    48   23   24 1
    49   23   57 1
    50   23   58 1
    51   23   74 1
    52   24   59 1
    53   24   60 1
    54   25   26 1
    55   25   61 1
    56   25   62 1
    57   25   74 1
    58   26   31 ar
    59   26   27 ar
    60   27   28 ar
    61   27   63 1
    62   28   29 ar
    63   28   64 1
    64   29   30 ar
    65   29   65 1
    66   30   31 ar
    67   30   66 1
    68   31   32 1
    69   32   33 1
    70   33   34 1
    71   33   67 1
    72   33   68 1
    73   34   35 2
    74   34   69 1
    75   35   70 1
    76   35   71 1
    77   72   73 1
    78   74   75 1
@<TRIPOS>MOLECULE
ZINC38903559
   53    57     0     0     0
SMALL
USER_CHARGES

@<TRIPOS>ATOM
      1 C1         -0.0162    1.3469    0.0094 C.ar      1 <0>         0.0546
      2 C2          1.1685    2.1018    0.0022 C.ar      1 <0>        -0.0740
      3 C3          2.3951    1.5361   -0.0125 C.ar      1 <0>        -0.0723
      4 C4          2.5337    0.1249   -0.0215 C.ar      1 <0>         0.2589
      5 N1          3.7316   -0.4211   -0.0354 N.2       1 <0>        -0.3600
      6 C5          3.8982   -1.7532   -0.0441 C.2       1 <0>         0.4557
      7 N2          5.0919   -2.2688   -0.0574 N.2       1 <0>        -0.8440
      8 S1          5.2834   -3.9137   -0.0681 S.o2      1 <0>         2.6126
      9 O1          4.7941   -4.3876    1.1790 O.2       1 <0>        -0.9451
     10 O2          4.7724   -4.3739   -1.3116 O.2       1 <0>        -0.9458
     11 C6          7.0155   -4.2364   -0.0850 C.ar      1 <0>        -0.6807
     12 C7          7.6842   -4.3506   -1.2901 C.ar      1 <0>         0.0275
     13 C8          9.0417   -4.6035   -1.3070 C.ar      1 <0>        -0.1830
     14 C9          9.7356   -4.7433   -0.1116 C.ar      1 <0>         0.2430
     15 C10         9.0607   -4.6280    1.0972 C.ar      1 <0>        -0.1910
     16 C11         7.7041   -4.3694    1.1069 C.ar      1 <0>         0.0297
     17 N3         11.1091   -4.9997   -0.1250 N.pl3     1 <0>        -0.6434
     18 C12        11.7901   -5.1369    1.0518 C.2       1 <0>         0.1951
     19 C13        13.1188   -5.3850    1.0388 C.2       1 <0>        -0.3283
     20 C14        13.8230   -5.5268    2.2556 C.2       1 <0>         0.4464
     21 O3         13.2325   -5.4256    3.3165 O.2       1 <0>        -0.4785
     22 C15        15.2758   -5.7980    2.2414 C.ar      1 <0>        -0.1522
     23 C16        15.9554   -5.9088    1.0262 C.ar      1 <0>        -0.0617
     24 C17        17.3099   -6.1611    1.0147 C.ar      1 <0>        -0.1145
     25 C18        18.0037   -6.3062    2.2086 C.ar      1 <0>         0.0650
     26 C19        17.3303   -6.1973    3.4259 C.ar      1 <0>         0.0207
     27 C20        15.9734   -5.9386    3.4432 C.ar      1 <0>        -0.0459
     28 O4         18.2286   -6.3781    4.4380 O.3       1 <0>        -0.3047
     29 C21        19.3735   -7.0027    3.8280 C.3       1 <0>         0.2118
     30 O5         19.3208   -6.5541    2.4610 O.3       1 <0>        -0.3039
     31 C22         2.6774   -2.6452   -0.0379 C.3       1 <0>        -0.0594
     32 N4          1.3552   -2.0000   -0.0222 N.pl3     1 <0>        -0.4894
     33 C23         1.2987   -0.6973   -0.0141 C.ar      1 <0>         0.3209
     34 C24         0.0021   -0.0041    0.0020 C.ar      1 <0>        -0.2037
     35 H1         -0.9665    1.8598    0.0259 H         1 <0>         0.1801
     36 H2          1.0956    3.1793    0.0083 H         1 <0>         0.1759
     37 H3          3.2751    2.1622   -0.0179 H         1 <0>         0.1878
     38 H4          7.1441   -4.2422   -2.2191 H         1 <0>         0.1486
     39 H5          9.5633   -4.6929   -2.2485 H         1 <0>         0.1466
     40 H6          9.5970   -4.7365    2.0284 H         1 <0>         0.1481
     41 H7          7.1796   -4.2752    2.0462 H         1 <0>         0.1491
     42 H8         11.5792   -5.0803   -0.9696 H         1 <0>         0.4207
     43 H9         11.2667   -5.0471    1.9922 H         1 <0>         0.1657
     44 H10        13.6422   -5.4747    0.0984 H         1 <0>         0.1352
     45 H11        15.4192   -5.7962    0.0955 H         1 <0>         0.1460
     46 H12        17.8336   -6.2460    0.0740 H         1 <0>         0.1436
     47 H13        15.4521   -5.8488    4.3848 H         1 <0>         0.1470
     48 H14        20.2934   -6.6662    4.3062 H         1 <0>         0.1376
     49 H15        19.2896   -8.0883    3.8783 H         1 <0>         0.0899
     50 H16         2.7263   -3.2823   -0.9210 H         1 <0>         0.1841
     51 H17         2.7423   -3.2919    0.8372 H         1 <0>         0.1842
     52 H18        -0.9205   -0.5655    0.0082 H         1 <0>         0.1843
     53 H19         0.5439   -2.5316   -0.0181 H         1 <0>         0.4651
@<TRIPOS>BOND
     1    1   34 ar
     2    1    2 ar
     3    1   35 1
     4    2    3 ar
     5    2   36 1
     6    3    4 ar
     7    3   37 1
     8    4   33 ar
     9    4    5 2
    10    5    6 1
    11    6    7 2
    12    6   31 1
    13    7    8 1
    14    8    9 2
    15    8   10 2
    16    8   11 1
    17   11   16 ar
    18   11   12 ar
    19   12   13 ar
    20   12   38 1
    21   13   14 ar
    22   13   39 1
    23   14   15 ar
    24   14   17 1
    25   15   16 ar
    26   15   40 1
    27   16   41 1
    28   17   18 1
    29   17   42 1
    30   18   19 2
    31   18   43 1
    32   19   20 1
    33   19   44 1
    34   20   21 2
    35   20   22 1
    36   22   27 ar
    37   22   23 ar
    38   23   24 ar
    39   23   45 1
    40   24   25 ar
    41   24   46 1
    42   25   30 1
    43   25   26 ar
    44   26   27 ar
    45   26   28 1
    46   27   47 1
    47   28   29 1
    48   29   30 1
    49   29   48 1
    50   29   49 1
    51   31   32 1
    52   31   50 1
    53   31   51 1
    54   32   33 2
    55   32   53 1
    56   33   34 ar
    57   34   52 1
@<TRIPOS>MOLECULE
ZINC39710798
   72    76     0     0     0
SMALL
USER_CHARGES

@<TRIPOS>ATOM
      1 C1          0.4232    0.6272   -0.7027 C.3       1 <0>        -0.1365
      2 C2          0.2479   -0.8492   -0.4564 C.ar      1 <0>        -0.1797
      3 C3          0.1379   -1.6999   -1.5100 C.ar      1 <0>         0.1081
      4 C4         -0.0256   -3.0764   -1.3519 C.ar      1 <0>        -0.1486
      5 C5         -0.0839   -3.6449   -0.1200 C.ar      1 <0>         0.0081
      6 C6          0.0281   -2.7859    1.0594 C.ar      1 <0>        -0.1512
      7 C7         -0.0250   -3.3125    2.3158 C.2       1 <0>         0.1020
      8 C8          0.0994   -2.3483    3.4793 C.3       1 <0>        -0.1603
      9 H1          0.9531   -2.6593    4.0815 H         1 <0>         0.2006
     10 C9          0.2721   -0.8823    3.1518 C.2       1 <0>         0.5349
     11 O1          0.3772   -0.0650    4.0466 O.2       1 <0>        -0.4403
     12 N1          0.3089   -0.4921    1.8887 N.am      1 <0>        -0.5772
     13 C10         0.2054   -1.3367    0.8627 C.ar      1 <0>         0.3488
     14 C11        -1.1553   -2.4908    4.3433 C.3       1 <0>         0.0668
     15 H2         -1.2881   -3.5364    4.6213 H         1 <0>         0.1867
     16 C12        -2.3756   -2.0143    3.5529 C.3       1 <0>         0.0991
     17 H3         -2.3978   -2.4836    2.5694 H         1 <0>         0.1475
     18 N2         -2.3625   -0.5509    3.4226 N.2       1 <0>        -0.3041
     19 N3         -3.3698   -0.0931    3.9663 N.2       1 <0>         0.1505
     20 N4         -4.1839   -1.0808    4.5196 N.pl3     1 <0>        -0.4862
     21 N5         -3.6189   -2.3118    4.2947 N.3       1 <0>        -0.2869
     22 C13        -4.5127   -3.1670    3.5024 C.3       1 <0>         0.0613
     23 C14        -3.7939   -4.4721    3.1546 C.3       1 <0>        -0.1495
     24 C15        -5.7718   -3.4788    4.3138 C.3       1 <0>        -0.1479
     25 C16        -4.9034   -2.4408    2.2136 C.3       1 <0>        -0.1837
     26 N6         -1.0092   -1.6761    5.5569 N.4       1 <0>        -0.3796
     27 C17        -2.1209   -1.9618    6.4727 C.3       1 <0>        -0.0511
     28 C18        -2.0331   -1.0312    7.6868 C.3       1 <0>         0.1013
     29 N7         -0.6984   -1.1744    8.2887 N.pl3     1 <0>        -0.6412
     30 C19         0.4746   -1.0650    7.4078 C.3       1 <0>         0.1061
     31 C20         0.2685   -1.9941    6.2069 C.3       1 <0>        -0.0324
     32 C21        -0.5492   -1.4072    9.6578 C.ar      1 <0>         0.1947
     33 C22         0.7180   -1.4241   10.2271 C.ar      1 <0>        -0.1536
     34 C23         0.8619   -1.6540   11.5810 C.ar      1 <0>        -0.0664
     35 C24        -0.2537   -1.8678   12.3702 C.ar      1 <0>        -0.1053
     36 C25        -1.5162   -1.8521   11.8068 C.ar      1 <0>        -0.1290
     37 C26        -1.6677   -1.6165   10.4542 C.ar      1 <0>        -0.1386
     38 C27        -2.7288   -2.0865   12.6704 C.3       1 <0>         0.5055
     39 F1         -2.3256   -2.2946   13.9937 F         1 <0>        -0.1687
     40 F2         -3.5682   -0.9690   12.6089 F         1 <0>        -0.1735
     41 F3         -3.4182   -3.2135   12.2102 F         1 <0>        -0.1756
     42 H4          1.4856    0.8599   -0.7746 H         1 <0>         0.1011
     43 H5         -0.0728    0.9016   -1.6337 H         1 <0>         0.1066
     44 H6         -0.0165    1.1878    0.1222 H         1 <0>         0.0753
     45 H7          0.1782   -1.2942   -2.5101 H         1 <0>         0.1769
     46 H8         -0.1078   -3.7030   -2.2277 H         1 <0>         0.1760
     47 H9         -0.2111   -4.7120   -0.0126 H         1 <0>         0.1835
     48 H10        -0.1510   -4.3731    2.4758 H         1 <0>         0.2141
     49 H11        -5.0181   -0.9233    4.9889 H         1 <0>         0.4740
     50 H12        -3.5810   -5.0246    4.0698 H         1 <0>         0.0819
     51 H13        -4.4291   -5.0749    2.5056 H         1 <0>         0.0942
     52 H14        -2.8595   -4.2464    2.6407 H         1 <0>         0.0456
     53 H15        -6.3309   -2.5589    4.4849 H         1 <0>         0.0645
     54 H16        -6.3934   -4.1847    3.7631 H         1 <0>         0.0879
     55 H17        -5.4880   -3.9150    5.2716 H         1 <0>         0.0785
     56 H18        -4.0064   -2.2187    1.6355 H         1 <0>         0.0495
     57 H19        -5.5666   -3.0754    1.6258 H         1 <0>         0.0923
     58 H20        -5.4155   -1.5111    2.4614 H         1 <0>         0.0710
     59 H21        -3.0674   -1.7987    5.9574 H         1 <0>         0.1735
     60 H22        -2.0614   -2.9984    6.8043 H         1 <0>         0.1400
     61 H23        -2.1827    0.0007    7.3690 H         1 <0>         0.0879
     62 H24        -2.7951   -1.3071    8.4157 H         1 <0>         0.1319
     63 H25         0.5782   -0.0366    7.0617 H         1 <0>         0.0945
     64 H26         1.3706   -1.3634    7.9522 H         1 <0>         0.1337
     65 H27         0.2557   -3.0297    6.5465 H         1 <0>         0.1444
     66 H28         1.0826   -1.8548    5.4956 H         1 <0>         0.1326
     67 H29         1.5895   -1.2579    9.6113 H         1 <0>         0.1331
     68 H30         1.8467   -1.6673   12.0242 H         1 <0>         0.1447
     69 H31        -0.1383   -2.0478   13.4288 H         1 <0>         0.1461
     70 H32        -2.6545   -1.5996   10.0156 H         1 <0>         0.1330
     71 H33         0.4204    0.4528    1.7000 H         1 <0>         0.4487
     72 H34        -1.0244   -0.6984    5.3080 H         1 <0>         0.4283
@<TRIPOS>BOND
     1    1    2 1
     2    1   42 1
     3    1   43 1
     4    1   44 1
     5    2   13 ar
     6    2    3 ar
     7    3    4 ar
     8    3   45 1
     9    4    5 ar
    10    4   46 1
    11    5    6 ar
    12    5   47 1
    13    6   13 ar
    14    6    7 2
    15    7    8 1
    16    7   48 1
    17    8    9 1
    18    8   10 1
    19    8   14 1
    20   10   11 2
    21   10   12 am
    22   12   13 2
    23   12   71 1
    24   14   15 1
    25   14   16 1
    26   14   26 1
    27   16   17 1
    28   16   21 1
    29   16   18 1
    30   18   19 2
    31   19   20 1
    32   20   21 1
    33   20   49 1
    34   21   22 1
    35   22   23 1
    36   22   24 1
    37   22   25 1
    38   23   50 1
    39   23   51 1
    40   23   52 1
    41   24   53 1
    42   24   54 1
    43   24   55 1
    44   25   56 1
    45   25   57 1
    46   25   58 1
    47   26   31 1
    48   26   27 1
    49   26   72 1
    50   27   28 1
    51   27   59 1
    52   27   60 1
    53   28   29 1
    54   28   61 1
    55   28   62 1
    56   29   30 1
    57   29   32 1
    58   30   31 1
    59   30   63 1
    60   30   64 1
    61   31   65 1
    62   31   66 1
    63   32   37 ar
    64   32   33 ar
    65   33   34 ar
    66   33   67 1
    67   34   35 ar
    68   34   68 1
    69   35   36 ar
    70   35   69 1
    71   36   37 ar
    72   36   38 1
    73   37   70 1
    74   38   39 1
    75   38   40 1
    76   38   41 1
@<TRIPOS>MOLECULE
ZINC52636760
   66    70     0     0     0
SMALL
USER_CHARGES

@<TRIPOS>ATOM
      1 C1         -1.0562    1.0152    0.7263 C.3       1 <0>        -0.1868
      2 C2         -0.6270   -0.4188    0.4095 C.3       1 <0>         0.1255
      3 H1         -1.4883   -1.0830    0.4824 H         1 <0>         0.0941
      4 C3         -0.0474   -0.4812   -1.0091 C.3       1 <0>         0.0814
      5 N1          0.5917   -1.7910   -1.1981 N.am      1 <0>        -0.6136
      6 C4          1.6289   -2.2167   -0.2479 C.3       1 <0>         0.0995
      7 C5          1.0493   -2.1544    1.1707 C.3       1 <0>         0.0959
      8 N2          0.4072   -0.8460    1.3623 N.pl3     1 <0>        -0.9748
      9 S1          0.8453    0.1316    2.6251 S.o2      1 <0>         2.6676
     10 O1          2.0756   -0.3756    3.1235 O.2       1 <0>        -0.9052
     11 O2          0.7013    1.4705    2.1712 O.2       1 <0>        -0.8915
     12 C6         -0.3482   -0.0988    3.9007 C.2       1 <0>        -0.5276
     13 C7         -0.1588   -0.7084    5.0905 C.ar      1 <0>        -0.0216
     14 C8          0.9940   -1.3552    5.7300 C.ar      1 <0>        -0.0553
     15 C9          0.8409   -1.8822    6.9657 C.ar      1 <0>         0.0778
     16 N3         -0.3037   -1.8477    7.6396 N.ar      1 <0>        -0.3728
     17 C10        -1.4079   -1.3060    7.1948 C.ar      1 <0>         0.3625
     18 C11        -1.4268   -0.6796    5.8584 C.ar      1 <0>         0.2815
     19 N4         -2.3584   -0.0787    5.1733 N.pl3     1 <0>        -0.4850
     20 C12        -1.7928    0.3520    3.8889 C.3       1 <0>         0.0761
     21 N5         -2.5607   -1.3204    7.9783 N.pl3     1 <0>        -0.3337
     22 C13        -2.8672   -2.2087    8.9669 C.2       1 <0>         0.1200
     23 C14        -4.0727   -1.8479    9.4545 C.2       1 <0>        -0.1025
     24 N6         -4.5045   -0.7723    8.7942 N.2       1 <0>        -0.1592
     25 N7         -3.6353   -0.4204    7.9118 N.2       1 <0>        -0.0528
     26 C15        -4.8119   -2.5475   10.5659 C.3       1 <0>         0.0862
     27 N8         -4.5240   -1.8792   11.8420 N.4       1 <0>        -0.3893
     28 C16        -5.3361   -2.4846   12.9060 C.3       1 <0>        -0.0483
     29 C17        -3.0994   -2.0338   12.1653 C.3       1 <0>        -0.0542
     30 C18         0.2334   -2.5874   -2.2246 C.2       1 <0>         0.5664
     31 O3          0.7150   -3.6986   -2.3286 O.2       1 <0>        -0.5177
     32 C19        -0.7455   -2.1095   -3.2243 C.ar      1 <0>        -0.1414
     33 C20        -0.7568   -0.7676   -3.6083 C.ar      1 <0>        -0.1012
     34 C21        -1.6725   -0.3282   -4.5419 C.ar      1 <0>        -0.1229
     35 C22        -2.5786   -1.2143   -5.0969 C.ar      1 <0>        -0.0889
     36 C23        -2.5731   -2.5456   -4.7203 C.ar      1 <0>        -0.1205
     37 C24        -1.6586   -2.9993   -3.7923 C.ar      1 <0>        -0.0627
     38 H2         -0.2500    1.7014    0.4670 H         1 <0>         0.1148
     39 H3         -1.9457    1.2644    0.1476 H         1 <0>         0.0968
     40 H4         -1.2788    1.1013    1.7898 H         1 <0>         0.0389
     41 H5         -0.8488   -0.3567   -1.7374 H         1 <0>         0.1261
     42 H6          0.6926    0.3088   -1.1370 H         1 <0>         0.0895
     43 H7          1.9347   -3.2383   -0.4735 H         1 <0>         0.1185
     44 H8          2.4883   -1.5503   -0.3216 H         1 <0>         0.0846
     45 H9          0.3093   -2.9444    1.2986 H         1 <0>         0.0861
     46 H10         1.8506   -2.2789    1.8991 H         1 <0>         0.1166
     47 H11         1.9459   -1.4094    5.2227 H         1 <0>         0.2103
     48 H12         1.6936   -2.3562    7.4291 H         1 <0>         0.2149
     49 H13        -1.8473    1.4368    3.7969 H         1 <0>         0.2191
     50 H14        -2.3280   -0.1228    3.0667 H         1 <0>         0.2094
     51 H15        -2.2619   -3.0404    9.2960 H         1 <0>         0.2248
     52 H16        -5.8834   -2.5097   10.3697 H         1 <0>         0.1573
     53 H17        -4.4887   -3.5871   10.6192 H         1 <0>         0.1563
     54 H18        -5.0952   -3.5444   12.9884 H         1 <0>         0.1282
     55 H19        -5.1224   -1.9887   13.8529 H         1 <0>         0.1314
     56 H20        -6.3931   -2.3698   12.6661 H         1 <0>         0.1296
     57 H21        -2.8857   -1.5380   13.1122 H         1 <0>         0.1329
     58 H22        -2.8585   -3.0937   12.2477 H         1 <0>         0.1304
     59 H23        -2.4968   -1.5846   11.3758 H         1 <0>         0.1100
     60 H24        -0.0504   -0.0748   -3.1753 H         1 <0>         0.1342
     61 H25        -1.6823    0.7098   -4.8399 H         1 <0>         0.1337
     62 H26        -3.2936   -0.8652   -5.8272 H         1 <0>         0.1324
     63 H27        -3.2833   -3.2321   -5.1570 H         1 <0>         0.1341
     64 H28        -1.6520   -4.0397   -3.5027 H         1 <0>         0.1328
     65 H29        -3.2725    0.0636    5.4651 H         1 <0>         0.4699
     66 H30        -4.7470   -0.8981   11.7657 H         1 <0>         0.4313
@<TRIPOS>BOND
     1    1    2 1
     2    1   38 1
     3    1   39 1
     4    1   40 1
     5    2    3 1
     6    2    8 1
     7    2    4 1
     8    4    5 1
     9    4   41 1
    10    4   42 1
    11    5    6 1
    12    5   30 am
    13    6    7 1
    14    6   43 1
    15    6   44 1
    16    7    8 1
    17    7   45 1
    18    7   46 1
    19    8    9 1
    20    9   10 2
    21    9   11 2
    22    9   12 1
    23   12   20 1
    24   12   13 2
    25   13   18 ar
    26   13   14 ar
    27   14   15 ar
    28   14   47 1
    29   15   16 ar
    30   15   48 1
    31   16   17 ar
    32   17   18 ar
    33   17   21 1
    34   18   19 2
    35   19   20 1
    36   19   65 1
    37   20   49 1
    38   20   50 1
    39   21   25 1
    40   21   22 1
    41   22   23 2
    42   22   51 1
    43   23   24 1
    44   23   26 1
    45   24   25 2
    46   26   27 1
    47   26   52 1
    48   26   53 1
    49   27   28 1
    50   27   29 1
    51   27   66 1
    52   28   54 1
    53   28   55 1
    54   28   56 1
    55   29   57 1
    56   29   58 1
    57   29   59 1
    58   30   31 2
    59   30   32 1
    60   32   37 ar
    61   32   33 ar
    62   33   34 ar
    63   33   60 1
    64   34   35 ar
    65   34   61 1
    66   35   36 ar
    67   35   62 1
    68   36   37 ar
    69   36   63 1
    70   37   64 1
@<TRIPOS>MOLECULE
ZINC63994157
   67    71     0     0     0
SMALL
USER_CHARGES

@<TRIPOS>ATOM
      1 C1         -0.0329    1.2460   -1.3186 C.3       1 <0>         0.0336
      2 O1         -0.0783   -0.1787   -1.4194 O.3       1 <0>        -0.3404
      3 C2         -1.2527   -0.7713   -1.1524 C.2       1 <0>         0.4516
      4 O2         -2.2104   -0.1026   -0.8434 O.2       1 <0>        -0.5047
      5 C3         -1.3767   -2.2708   -1.2381 C.3       1 <0>         0.1237
      6 N1         -2.7467   -2.6674   -0.9033 N.am      1 <0>        -0.5599
      7 C4         -3.1698   -2.9528    0.3459 C.2       1 <0>         0.5399
      8 O3         -2.5147   -2.9309    1.3658 O.2       1 <0>        -0.4342
      9 C5         -4.6322   -3.3047    0.2052 C.3       1 <0>         0.1134
     10 C6         -4.8832   -4.7386    0.6618 C.3       1 <0>        -0.1412
     11 C7         -6.3783   -5.0503    0.5513 C.3       1 <0>        -0.0265
     12 N2         -7.1388   -4.1101    1.3835 N.4       1 <0>        -0.3857
     13 C8         -6.9655   -2.7423    0.8799 C.3       1 <0>        -0.0369
     14 C9         -5.4951   -2.3330    1.0042 C.3       1 <0>        -0.1380
     15 C10        -8.5633   -4.4670    1.3453 C.3       1 <0>         0.0422
     16 C11        -9.3255   -3.5954    2.3098 C.2       1 <0>        -0.0598
     17 C12        -9.9904   -2.4531    2.0226 C.ar      1 <0>        -0.0860
     18 C13       -10.1942   -1.7082    0.7743 C.ar      1 <0>        -0.0743
     19 C14       -10.9237   -0.5697    0.8015 C.ar      1 <0>        -0.0946
     20 C15       -11.4884   -0.0843    1.9890 C.ar      1 <0>         0.0563
     21 C16       -11.3450   -0.7129    3.1749 C.ar      1 <0>        -0.1965
     22 C17       -10.5975   -1.9196    3.2629 C.ar      1 <0>         0.3332
     23 N3        -10.3188   -2.7017    4.2774 N.pl3     1 <0>        -0.5522
     24 C18        -9.5074   -3.8243    3.7937 C.3       1 <0>         0.0668
     25 N4         -4.8970   -3.1675   -1.2321 N.am      1 <0>        -0.6255
     26 C19        -3.7356   -2.7861   -1.7978 C.2       1 <0>         0.7082
     27 O4         -3.5999   -2.5762   -2.9872 O.2       1 <0>        -0.4980
     28 C20        -6.1727   -3.3956   -1.9152 C.3       1 <0>         0.1431
     29 C21        -6.0469   -4.6087   -2.8390 C.3       1 <0>        -0.1086
     30 C22        -7.3894   -4.9155   -3.4510 C.ar      1 <0>        -0.0966
     31 C23        -8.2998   -5.6967   -2.7641 C.ar      1 <0>        -0.1347
     32 C24        -9.5313   -5.9782   -3.3254 C.ar      1 <0>        -0.1172
     33 C25        -9.8526   -5.4780   -4.5734 C.ar      1 <0>        -0.1106
     34 C26        -8.9426   -4.6961   -5.2599 C.ar      1 <0>        -0.1045
     35 C27        -7.7127   -4.4111   -4.6967 C.ar      1 <0>        -0.1048
     36 H1          0.9712    1.5955   -1.5593 H         1 <0>         0.1140
     37 H2         -0.7467    1.6826   -2.0171 H         1 <0>         0.0658
     38 H3         -0.2884    1.5468   -0.3025 H         1 <0>         0.0646
     39 H4         -1.1411   -2.5975   -2.2509 H         1 <0>         0.1510
     40 H5         -0.6827   -2.7334   -0.5363 H         1 <0>         0.1486
     41 H6         -4.3206   -5.4255    0.0296 H         1 <0>         0.1361
     42 H7         -4.5635   -4.8518    1.6977 H         1 <0>         0.1234
     43 H8         -6.6937   -4.9529   -0.4875 H         1 <0>         0.1468
     44 H9         -6.5631   -6.0688    0.8927 H         1 <0>         0.1579
     45 H10        -7.2670   -2.6997   -0.1667 H         1 <0>         0.1519
     46 H11        -7.5830   -2.0595    1.4635 H         1 <0>         0.1365
     47 H12        -5.1974   -2.3592    2.0524 H         1 <0>         0.1200
     48 H13        -5.3640   -1.3239    0.6133 H         1 <0>         0.1346
     49 H14        -8.9487   -4.3164    0.3369 H         1 <0>         0.1650
     50 H15        -8.6835   -5.5129    1.6278 H         1 <0>         0.1756
     51 H16        -9.7676   -2.0638   -0.1519 H         1 <0>         0.1650
     52 H17       -11.0749   -0.0201   -0.1158 H         1 <0>         0.1706
     53 H18       -12.0614    0.8305    1.9537 H         1 <0>         0.1742
     54 H19       -11.8000   -0.2971    4.0617 H         1 <0>         0.1734
     55 H20       -10.0254   -4.7674    3.9676 H         1 <0>         0.1883
     56 H21        -8.5393   -3.8287    4.2946 H         1 <0>         0.1769
     57 H22        -6.9524   -3.5809   -1.1764 H         1 <0>         0.0770
     58 H23        -6.4319   -2.5157   -2.5041 H         1 <0>         0.1012
     59 H24        -5.3287   -4.3905   -3.6294 H         1 <0>         0.1019
     60 H25        -5.7044   -5.4691   -2.2642 H         1 <0>         0.0802
     61 H26        -8.0488   -6.0874   -1.7890 H         1 <0>         0.1095
     62 H27       -10.2423   -6.5891   -2.7890 H         1 <0>         0.1245
     63 H28       -10.8145   -5.6985   -5.0123 H         1 <0>         0.1288
     64 H29        -9.1935   -4.3056   -6.2351 H         1 <0>         0.1310
     65 H30        -7.0032   -3.7971   -5.2315 H         1 <0>         0.1290
     66 H31       -10.6046   -2.5634    5.1940 H         1 <0>         0.4672
     67 H32        -6.8073   -4.1613    2.3351 H         1 <0>         0.4290
@<TRIPOS>BOND
     1    1    2 1
     2    1   36 1
     3    1   37 1
     4    1   38 1
     5    2    3 1
     6    3    4 2
     7    3    5 1
     8    5    6 1
     9    5   39 1
    10    5   40 1
    11    6   26 am
    12    6    7 am
    13    7    8 2
    14    7    9 1
    15    9   14 1
    16    9   10 1
    17    9   25 1
    18   10   11 1
    19   10   41 1
    20   10   42 1
    21   11   12 1
    22   11   43 1
    23   11   44 1
    24   12   13 1
    25   12   15 1
    26   12   67 1
    27   13   14 1
    28   13   45 1
    29   13   46 1
    30   14   47 1
    31   14   48 1
    32   15   16 1
    33   15   49 1
    34   15   50 1
    35   16   24 1
    36   16   17 2
    37   17   22 ar
    38   17   18 ar
    39   18   19 ar
    40   18   51 1
    41   19   20 ar
    42   19   52 1
    43   20   21 ar
    44   20   53 1
    45   21   22 ar
    46   21   54 1
    47   22   23 2
    48   23   24 1
    49   23   66 1
    50   24   55 1
    51   24   56 1
    52   25   26 am
    53   25   28 1
    54   26   27 2
    55   28   29 1
    56   28   57 1
    57   28   58 1
    58   29   30 1
    59   29   59 1
    60   29   60 1
    61   30   35 ar
    62   30   31 ar
    63   31   32 ar
    64   31   61 1
    65   32   33 ar
    66   32   62 1
    67   33   34 ar
    68   33   63 1
    69   34   35 ar
    70   34   64 1
    71   35   65 1
@<TRIPOS>MOLECULE
ZINC02354007
   58    62     0     0     0
SMALL
USER_CHARGES
3-[2-(2,5-dioxabicyclo[4.4.0]deca-7,9,11-trien-8-yl)-2-oxo-ethyl]-3-hydroxy-1-(1-piperidylmethyl)indolin-2-one
@<TRIPOS>ATOM
      1 C1         -4.4705   10.3610   -5.5442 C.ar      1 <0>        -0.1175
      2 C2         -3.5690   11.3924   -5.7348 C.ar      1 <0>        -0.0691
      3 C3         -2.5627   11.6175   -4.8186 C.ar      1 <0>        -0.1411
      4 C4         -2.4469   10.8045   -3.6927 C.ar      1 <0>         0.1188
      5 C5         -3.3584    9.7719   -3.5125 C.ar      1 <0>        -0.1158
      6 C6         -4.3622    9.5496   -4.4282 C.ar      1 <0>        -0.0386
      7 C7         -2.9738    9.0855   -2.2221 C.3       1 <0>         0.1689
      8 C8         -1.7664    9.8604   -1.7388 C.2       1 <0>         0.5031
      9 O1         -1.1311    9.6474   -0.7278 O.2       1 <0>        -0.4348
     10 N1         -1.5313   10.8288   -2.6401 N.am      1 <0>        -0.5671
     11 C9         -0.4392   11.7991   -2.5301 C.3       1 <0>         0.2237
     12 C10        -1.6630   13.8835   -2.6645 C.3       1 <0>        -0.0120
     13 C11        -2.2546   15.0235   -1.8322 C.3       1 <0>        -0.1452
     14 C12        -1.1209   15.7844   -1.1392 C.3       1 <0>        -0.1378
     15 C13        -0.3181   14.8103   -0.2724 C.3       1 <0>        -0.1466
     16 C14         0.2173   13.6765   -1.1499 C.3       1 <0>        -0.0007
     17 C15        -2.6038    7.6238   -2.4821 C.3       1 <0>        -0.1736
     18 C16        -2.2249    6.9627   -1.1819 C.2       1 <0>         0.4008
     19 O2         -2.2484    7.5981   -0.1490 O.2       1 <0>        -0.4347
     20 C17        -1.8271    5.5491   -1.1656 C.ar      1 <0>        -0.1786
     21 C18        -1.7985    4.8132   -2.3564 C.ar      1 <0>        -0.0664
     22 C19        -1.4260    3.4887   -2.3365 C.ar      1 <0>        -0.1263
     23 C20        -1.0769    2.8757   -1.1377 C.ar      1 <0>         0.0947
     24 C21        -1.1005    3.6022    0.0513 C.ar      1 <0>         0.0387
     25 C22        -1.4746    4.9323    0.0406 C.ar      1 <0>        -0.0467
     26 O3         -0.7544    3.0178    1.2313 O.3       1 <0>        -0.3034
     27 C23        -0.7426    1.5865    1.2617 C.3       1 <0>         0.0186
     28 C24        -0.0127    1.0858    0.0080 C.3       1 <0>         0.0175
     29 O4         -0.7157    1.5653   -1.1431 O.3       1 <0>        -0.2995
     30 O5         -4.0390    9.1698   -1.2734 O.3       1 <0>        -0.5229
     31 H1         -5.2570   10.1893   -6.2641 H         1 <0>         0.1441
     32 H2         -3.6537   12.0254   -6.6057 H         1 <0>         0.1435
     33 H3         -1.8631   12.4255   -4.9742 H         1 <0>         0.1283
     34 H4         -5.0640    8.7429   -4.2761 H         1 <0>         0.1426
     35 H5          0.3981   11.3452   -2.0000 H         1 <0>         0.1560
     36 H6         -0.1180   12.0993   -3.5275 H         1 <0>         0.1562
     37 H7         -0.9985   14.2953   -3.4241 H         1 <0>         0.1338
     38 H8         -2.4686   13.3309   -3.1479 H         1 <0>         0.1266
     39 H9         -2.9299   14.6134   -1.0813 H         1 <0>         0.0865
     40 H10        -2.8037   15.7030   -2.4840 H         1 <0>         0.1137
     41 H11        -1.5404   16.5702   -0.5110 H         1 <0>         0.0954
     42 H12        -0.4670   16.2275   -1.8903 H         1 <0>         0.0831
     43 H13        -0.9630   14.3968    0.5030 H         1 <0>         0.0874
     44 H14         0.5162   15.3375    0.1902 H         1 <0>         0.1151
     45 H15         0.7773   12.9736   -0.5333 H         1 <0>         0.1307
     46 H16         0.8728   14.0895   -1.9166 H         1 <0>         0.1347
     47 H17        -1.8303    7.5832   -3.1146 H         1 <0>         0.1053
     48 H18        -3.4574    7.1050   -2.9183 H         1 <0>         0.1334
     49 H19        -2.0686    5.2848   -3.2897 H         1 <0>         0.1408
     50 H20        -1.4046    2.9225   -3.2559 H         1 <0>         0.1464
     51 H21        -1.4952    5.4955    0.9619 H         1 <0>         0.1478
     52 H22        -1.7659    1.2111    1.2659 H         1 <0>         0.0831
     53 H23        -0.2201    1.2413    2.1538 H         1 <0>         0.1300
     54 H24         0.0021   -0.0041    0.0020 H         1 <0>         0.1309
     55 H25         1.0084    1.4672    0.0003 H         1 <0>         0.0840
     56 H26        -3.8351    8.7706   -0.4165 H         1 <0>         0.4001
     57 N2         -0.9237   12.9688   -1.7685 N.4       1 <0>        -0.4128
     58 H27        -1.5563   12.6453   -1.0273 H         1 <0>         0.4271
@<TRIPOS>BOND
     1    1    6 ar
     2    1    2 ar
     3    1   31 1
     4    2    3 ar
     5    2   32 1
     6    3    4 ar
     7    3   33 1
     8    4   10 1
     9    4    5 ar
    10    5    6 ar
    11    5    7 1
    12    6   34 1
    13    7    8 1
    14    7   17 1
    15    7   30 1
    16    8    9 2
    17    8   10 am
    18   10   11 1
    19   11   35 1
    20   11   36 1
    21   11   57 1
    22   12   13 1
    23   12   37 1
    24   12   38 1
    25   12   57 1
    26   13   14 1
    27   13   39 1
    28   13   40 1
    29   14   15 1
    30   14   41 1
    31   14   42 1
    32   15   16 1
    33   15   43 1
    34   15   44 1
    35   16   45 1
    36   16   46 1
    37   16   57 1
    38   17   18 1
    39   17   47 1
    40   17   48 1
    41   18   19 2
    42   18   20 1
    43   20   25 ar
    44   20   21 ar
    45   21   22 ar
    46   21   49 1
    47   22   23 ar
    48   22   50 1
    49   23   29 1
    50   23   24 ar
    51   24   25 ar
    52   24   26 1
    53   25   51 1
    54   26   27 1
    55   27   28 1
    56   27   52 1
    57   27   53 1
    58   28   29 1
    59   28   54 1
    60   28   55 1
    61   30   56 1
    62   57   58 1
@<TRIPOS>MOLECULE
ZINC14749573
   66    70     0     0     0
SMALL
USER_CHARGES

@<TRIPOS>ATOM
      1 C1         -0.4397    0.7306   -6.1175 C.3       1 <0>        -0.1040
      2 C2         -0.8200    1.0358   -4.6916 C.2       1 <0>         0.0636
      3 C3          0.0111    1.0287   -3.6320 C.2       1 <0>         0.0524
      4 N1         -0.7403    1.3603   -2.5370 N.pl3     1 <0>        -0.5104
      5 H1         -0.4233    1.4383   -1.6236 H         1 <0>         0.4624
      6 C4         -2.0054    1.5587   -2.9659 C.cat     1 <0>         0.3059
      7 N2         -2.0445    1.3678   -4.2563 N.pl3     1 <0>        -0.4754
      8 C5          1.4851    0.7153   -3.6485 C.3       1 <0>         0.1133
      9 N3          1.6756   -0.7402   -3.7045 N.3       1 <0>        -0.5335
     10 C6          1.1862   -1.3826   -2.4780 C.3       1 <0>         0.0260
     11 C7          1.2550   -2.9042   -2.6367 C.3       1 <0>        -0.1098
     12 C8          2.6939   -3.3164   -2.9315 C.3       1 <0>         0.1230
     13 C9          3.2149   -2.5888   -4.1669 C.3       1 <0>        -0.1097
     14 C10         3.0822   -1.0774   -3.9583 C.3       1 <0>         0.0445
     15 C11         2.7873   -4.8125   -3.1203 C.2       1 <0>         0.5318
     16 O1          2.2343   -5.4816   -3.9665 O.2       1 <0>        -0.4535
     17 N4          3.6162   -5.2467   -2.1481 N.am      1 <0>        -0.5695
     18 C12         4.0508   -4.2373   -1.3835 C.2       1 <0>         0.6993
     19 O2          4.8080   -4.3788   -0.4434 O.2       1 <0>        -0.5189
     20 N5          3.5548   -3.0472   -1.7733 N.am      1 <0>        -0.6168
     21 C13         3.8217   -1.7426   -1.1625 C.3       1 <0>         0.1414
     22 C14         3.3526   -1.7557    0.2938 C.3       1 <0>        -0.1242
     23 C15         3.6807   -0.4119    0.9474 C.3       1 <0>        -0.1439
     24 C16         1.8414   -1.9902    0.3407 C.3       1 <0>        -0.1540
     25 C17         3.9939   -6.6487   -1.9535 C.3       1 <0>         0.1475
     26 C18         3.7279   -7.0918   -0.4991 C.3       1 <0>        -0.0905
     27 C19         4.8485   -8.0536   -0.1668 C.ar      1 <0>        -0.0911
     28 C20         4.9576   -8.9875    0.8502 C.ar      1 <0>        -0.1035
     29 C21         6.0923   -9.7671    0.9590 C.ar      1 <0>        -0.1152
     30 C22         7.1232   -9.6155    0.0503 C.ar      1 <0>        -0.1155
     31 C23         7.0163   -8.6849   -0.9644 C.ar      1 <0>        -0.1026
     32 C24         5.8791   -7.9021   -1.0752 C.ar      1 <0>        -0.0924
     33 C25         5.5217   -6.8281   -2.0802 C.3       1 <0>        -0.0885
     34 H2         -0.2164    1.6603   -6.6409 H         1 <0>         0.0990
     35 H3          0.4399    0.0869   -6.1291 H         1 <0>         0.1145
     36 H4         -1.2673    0.2239   -6.6138 H         1 <0>         0.0925
     37 H5         -2.8448    1.8339   -2.3446 H         1 <0>         0.2662
     38 H6          1.9446    1.1758   -4.5231 H         1 <0>         0.1259
     39 H7          1.9502    1.1081   -2.7444 H         1 <0>         0.0680
     40 H8          1.8062   -1.0768   -1.6353 H         1 <0>         0.0765
     41 H9          0.1540   -1.0824   -2.2976 H         1 <0>         0.0720
     42 H10         0.9214   -3.3816   -1.7154 H         1 <0>         0.0871
     43 H11         0.6120   -3.2135   -3.4607 H         1 <0>         0.0994
     44 H12         4.2629   -2.8437   -4.3242 H         1 <0>         0.0884
     45 H13         2.6324   -2.8883   -5.0381 H         1 <0>         0.1031
     46 H14         3.4255   -0.5558   -4.8517 H         1 <0>         0.0982
     47 H15         3.6884   -0.7738   -3.1048 H         1 <0>         0.0603
     48 H16         4.8915   -1.5369   -1.1977 H         1 <0>         0.0807
     49 H17         3.2846   -0.9682   -1.7102 H         1 <0>         0.0972
     50 H18         3.8612   -2.5554    0.8321 H         1 <0>         0.0941
     51 H19         3.1720    0.3878    0.4091 H         1 <0>         0.0486
     52 H20         3.3465   -0.4212    1.9849 H         1 <0>         0.0653
     53 H21         4.7573   -0.2448    0.9140 H         1 <0>         0.0627
     54 H22         1.5943   -2.8836   -0.2328 H         1 <0>         0.0593
     55 H23         1.5264   -2.1242    1.3756 H         1 <0>         0.0614
     56 H24         1.3267   -1.1299   -0.0873 H         1 <0>         0.0504
     57 H25         3.4684   -7.2915   -2.6598 H         1 <0>         0.1233
     58 H26         3.7570   -6.2316    0.1696 H         1 <0>         0.0984
     59 H27         2.7637   -7.5951   -0.4275 H         1 <0>         0.0815
     60 H28         4.1529   -9.1061    1.5606 H         1 <0>         0.1210
     61 H29         6.1745  -10.4941    1.7533 H         1 <0>         0.1269
     62 H30         8.0115  -10.2241    0.1341 H         1 <0>         0.1271
     63 H31         7.8220   -8.5671   -1.6739 H         1 <0>         0.1217
     64 H32         5.7823   -7.1514   -3.0880 H         1 <0>         0.0834
     65 H33         6.0333   -5.8969   -1.8367 H         1 <0>         0.0928
     66 H34        -2.8348    1.4509   -4.8125 H         1 <0>         0.4653
@<TRIPOS>BOND
     1    1   34 1
     2    1   35 1
     3    1   36 1
     4    1    2 1
     5    2    7 1
     6    2    3 2
     7    3    8 1
     8    3    4 1
     9    4    6 1
    10    4    5 1
    11    6   37 1
    12    6    7 2
    13    7   66 1
    14    8    9 1
    15    8   38 1
    16    8   39 1
    17    9   14 1
    18    9   10 1
    19   10   11 1
    20   10   40 1
    21   10   41 1
    22   11   12 1
    23   11   42 1
    24   11   43 1
    25   12   20 1
    26   12   13 1
    27   12   15 1
    28   13   14 1
    29   13   44 1
    30   13   45 1
    31   14   46 1
    32   14   47 1
    33   15   16 2
    34   15   17 am
    35   17   18 am
    36   17   25 1
    37   18   19 2
    38   18   20 am
    39   20   21 1
    40   21   22 1
    41   21   48 1
    42   21   49 1
    43   22   23 1
    44   22   24 1
    45   22   50 1
    46   23   51 1
    47   23   52 1
    48   23   53 1
    49   24   54 1
    50   24   55 1
    51   24   56 1
    52   25   33 1
    53   25   26 1
    54   25   57 1
    55   26   27 1
    56   26   58 1
    57   26   59 1
    58   27   32 ar
    59   27   28 ar
    60   28   29 ar
    61   28   60 1
    62   29   30 ar
    63   29   61 1
    64   30   31 ar
    65   30   62 1
    66   31   32 ar
    67   31   63 1
    68   32   33 1
    69   33   64 1
    70   33   65 1
@<TRIPOS>MOLECULE
ZINC37443419
   66    70     0     0     0
SMALL
USER_CHARGES

@<TRIPOS>ATOM
      1 C1         -0.0187    1.5258    0.0104 C.3       1 <0>        -0.1495
      2 C2          0.0021   -0.0041    0.0020 C.3       1 <0>        -0.1005
      3 H1         -1.0205   -0.3814    0.0098 H         1 <0>         0.0914
      4 C3          0.7182   -0.4975   -1.2568 C.3       1 <0>        -0.1160
      5 C4          0.7390   -2.0273   -1.2652 C.3       1 <0>        -0.1239
      6 C5          1.4790   -2.5342   -0.0257 C.3       1 <0>        -0.1165
      7 C6          0.7628   -2.0407    1.2331 C.3       1 <0>        -0.1310
      8 C7          0.7421   -0.5109    1.2415 C.3       1 <0>         0.1475
      9 H2          0.2319   -0.1594    2.1383 H         1 <0>         0.0936
     10 N1          2.1165   -0.0038    1.2311 N.am      1 <0>        -0.7058
     11 C8          2.7950    0.1277    2.3882 C.2       1 <0>         0.4985
     12 O1          2.2678   -0.1736    3.4380 O.2       1 <0>        -0.5152
     13 C9          4.2088    0.6494    2.3775 C.3       1 <0>         0.1445
     14 C10         4.1731    2.1749    2.4640 C.3       1 <0>         0.1103
     15 N2          3.7413    2.7203    1.1736 N.pl3     1 <0>        -0.4329
     16 C11         3.0695    3.8710    0.8898 C.2       1 <0>         0.0538
     17 C12         2.4559    5.0326    1.4175 C.2       1 <0>        -0.2145
     18 C13         1.9780    5.7387    0.3785 C.2       1 <0>         0.0425
     19 O2          2.2539    5.0926   -0.7667 O.3       1 <0>        -0.1605
     20 C14         2.9162    3.9479   -0.4944 C.2       1 <0>        -0.0475
     21 C15         3.5086    2.8047   -1.0515 C.2       1 <0>        -0.0377
     22 C16         4.0035    2.0582   -0.0233 C.2       1 <0>        -0.0504
     23 C17         4.6967    0.7641   -0.0301 C.2       1 <0>         0.6005
     24 O3          5.0876    0.2516   -1.0626 O.2       1 <0>        -0.4898
     25 N3          4.8783    0.1716    1.1734 N.am      1 <0>        -0.6094
     26 C18         5.7738   -0.9839    1.2689 C.3       1 <0>         0.0839
     27 C19         4.9759   -2.2683    1.0352 C.3       1 <0>        -0.0333
     28 N4          5.8739   -3.4269    1.1310 N.4       1 <0>        -0.3889
     29 C20         6.3368   -3.6017    2.5315 C.3       1 <0>        -0.0133
     30 C21         6.7617   -5.0908    2.5812 C.3       1 <0>        -0.1434
     31 C22         5.7018   -5.7826    1.6934 C.3       1 <0>        -0.1439
     32 C23         5.1442   -4.6673    0.7897 C.3       1 <0>        -0.0084
     33 C24         4.9456    0.1039    3.6024 C.3       1 <0>        -0.1508
     34 H3          1.0039    1.9031    0.0027 H         1 <0>         0.0546
     35 H4         -0.5459    1.8868   -0.8726 H         1 <0>         0.0627
     36 H5         -0.5289    1.8773    0.9072 H         1 <0>         0.0564
     37 H6          0.1910   -0.1364   -2.1398 H         1 <0>         0.0747
     38 H7          1.7408   -0.1202   -1.2645 H         1 <0>         0.0533
     39 H8         -0.2836   -2.4046   -1.2575 H         1 <0>         0.0708
     40 H9          1.2492   -2.3788   -2.1620 H         1 <0>         0.0660
     41 H10         1.4937   -3.6240   -0.0317 H         1 <0>         0.0632
     42 H11         2.5015   -2.1569   -0.0334 H         1 <0>         0.0468
     43 H12        -0.2598   -2.4180    1.2409 H         1 <0>         0.0815
     44 H13         1.2900   -2.4018    2.1162 H         1 <0>         0.0642
     45 H14         2.5382    0.2372    0.3915 H         1 <0>         0.3982
     46 H15         3.4720    2.4793    3.2411 H         1 <0>         0.1204
     47 H16         5.1684    2.5495    2.7031 H         1 <0>         0.1093
     48 H17         2.3850    5.3014    2.4611 H         1 <0>         0.1578
     49 H18         1.4531    6.6796    0.4527 H         1 <0>         0.2193
     50 H19         3.5622    2.5603   -2.1021 H         1 <0>         0.1653
     51 H20         6.5566   -0.9002    0.5150 H         1 <0>         0.1136
     52 H21         6.2258   -1.0122    2.2604 H         1 <0>         0.1140
     53 H22         4.1931   -2.3520    1.7892 H         1 <0>         0.1297
     54 H23         4.5239   -2.2399    0.0438 H         1 <0>         0.1378
     55 H24         7.1869   -2.9519    2.7397 H         1 <0>         0.1374
     56 H25         5.5241   -3.4100    3.2321 H         1 <0>         0.1337
     57 H26         7.7598   -5.2213    2.1629 H         1 <0>         0.1001
     58 H27         6.7174   -5.4708    3.6018 H         1 <0>         0.1179
     59 H28         6.1651   -6.5627    1.0894 H         1 <0>         0.1070
     60 H29         4.9073   -6.2023    2.3103 H         1 <0>         0.1042
     61 H30         4.0787   -4.5350    0.9777 H         1 <0>         0.1290
     62 H31         5.3107   -4.9198   -0.2575 H         1 <0>         0.1348
     63 H32         4.9539   -0.9855    3.5661 H         1 <0>         0.0720
     64 H33         5.9705    0.4751    3.6050 H         1 <0>         0.0868
     65 H34         4.4375    0.4334    4.5087 H         1 <0>         0.1044
     66 H35         6.6639   -3.3072    0.5148 H         1 <0>         0.4297
@<TRIPOS>BOND
     1    1    2 1
     2    1   34 1
     3    1   35 1
     4    1   36 1
     5    2    3 1
     6    2    8 1
     7    2    4 1
     8    4    5 1
     9    4   37 1
    10    4   38 1
    11    5    6 1
    12    5   39 1
    13    5   40 1
    14    6    7 1
    15    6   41 1
    16    6   42 1
    17    7    8 1
    18    7   43 1
    19    7   44 1
    20    8    9 1
    21    8   10 1
    22   10   11 am
    23   10   45 1
    24   11   12 2
    25   11   13 1
    26   13   25 1
    27   13   14 1
    28   13   33 1
    29   14   15 1
    30   14   46 1
    31   14   47 1
    32   15   22 1
    33   15   16 1
    34   16   20 2
    35   16   17 1
    36   17   18 2
    37   17   48 1
    38   18   19 1
    39   18   49 1
    40   19   20 1
    41   20   21 1
    42   21   22 2
    43   21   50 1
    44   22   23 1
    45   23   24 2
    46   23   25 am
    47   25   26 1
    48   26   27 1
    49   26   51 1
    50   26   52 1
    51   27   28 1
    52   27   53 1
    53   27   54 1
    54   28   32 1
    55   28   29 1
    56   28   66 1
    57   29   30 1
    58   29   55 1
    59   29   56 1
    60   30   31 1
    61   30   57 1
    62   30   58 1
    63   31   32 1
    64   31   59 1
    65   31   60 1
    66   32   61 1
    67   32   62 1
    68   33   63 1
    69   33   64 1
    70   33   65 1
@<TRIPOS>MOLECULE
ZINC63367776
   59    63     0     0     0
SMALL
USER_CHARGES

@<TRIPOS>ATOM
      1 C1         -0.0194    1.3451    0.0145 C.ar      1 <0>        -0.1542
      2 C2          1.1623    2.0989    0.0107 C.ar      1 <0>         0.0586
      3 C3          2.3871    1.5318    0.0002 C.ar      1 <0>        -0.2107
      4 C4          2.5265    0.1176   -0.0077 C.ar      1 <0>         0.3338
      5 N1          3.5888   -0.6549   -0.0388 N.pl3     1 <0>        -0.5817
      6 C5          3.1533   -2.0468    0.0454 C.3       1 <0>         0.0737
      7 H1          3.4781   -2.4940    0.9849 H         1 <0>         0.1772
      8 C6          3.6509   -2.8744   -1.1454 C.3       1 <0>         0.1393
      9 N2          2.8561   -4.1112   -1.1992 N.am      1 <0>        -0.6318
     10 C7          1.3994   -4.0563   -1.3621 C.3       1 <0>         0.1067
     11 C8          0.7886   -3.2385   -0.2092 C.3       1 <0>        -0.1043
     12 C9          1.6363   -1.9997   -0.0294 C.2       1 <0>         0.0723
     13 C10         1.2913   -0.7044   -0.0106 C.ar      1 <0>        -0.1663
     14 C11        -0.0008   -0.0065    0.0048 C.ar      1 <0>        -0.0061
     15 C12         3.4721   -5.3057   -1.0985 C.2       1 <0>         0.7136
     16 O1          4.6860   -5.3623   -1.0582 O.2       1 <0>        -0.5689
     17 N3          2.7425   -6.4376   -1.0424 N.am      1 <0>        -0.7264
     18 C13         3.4046   -7.7257   -0.8219 C.3       1 <0>         0.1158
     19 C14         2.3728   -8.8239   -0.8015 C.2       1 <0>         0.5120
     20 O2          1.1999   -8.5569   -0.9559 O.2       1 <0>        -0.5416
     21 N4          2.7535  -10.1027   -0.6116 N.am      1 <0>        -0.5973
     22 C15         4.1706  -10.4403   -0.4170 C.3       1 <0>         0.0834
     23 C16         4.3133  -11.2170    0.8978 C.3       1 <0>         0.1312
     24 N5          3.3187  -12.2988    0.9144 N.pl3     1 <0>        -0.6725
     25 C17         1.9017  -11.9613    0.7199 C.3       1 <0>         0.1321
     26 C18         1.7583  -11.1839   -0.5893 C.3       1 <0>         0.0944
     27 C19         3.7137  -13.6258    1.1115 C.ar      1 <0>         0.1292
     28 C20         3.7750  -14.1502    2.3954 C.ar      1 <0>        -0.0955
     29 C21         4.1651  -15.4616    2.5870 C.ar      1 <0>        -0.1229
     30 C22         4.4951  -16.2527    1.5020 C.ar      1 <0>        -0.0896
     31 C23         4.4361  -15.7349    0.2210 C.ar      1 <0>        -0.1498
     32 C24         4.0406  -14.4250    0.0212 C.ar      1 <0>         0.0906
     33 F1          3.9771  -13.9208   -1.2306 F         1 <0>        -0.1357
     34 H2         -0.9699    1.8576    0.0301 H         1 <0>         0.1586
     35 H3          1.0899    3.1765    0.0159 H         1 <0>         0.1618
     36 H4          3.2675    2.1574   -0.0024 H         1 <0>         0.1612
     37 H5          3.5179   -2.3099   -2.0683 H         1 <0>         0.0971
     38 H6          4.7046   -3.1186   -1.0102 H         1 <0>         0.1339
     39 H7          1.1572   -3.5816   -2.3130 H         1 <0>         0.0954
     40 H8          0.9931   -5.0676   -1.3459 H         1 <0>         0.1131
     41 H9         -0.2365   -2.9591   -0.4526 H         1 <0>         0.1260
     42 H10         0.8087   -3.8205    0.7122 H         1 <0>         0.1264
     43 H11        -0.9245   -0.5661    0.0084 H         1 <0>         0.1617
     44 H12         1.7790   -6.3993   -1.1480 H         1 <0>         0.4094
     45 H13         4.1164   -7.9108   -1.6264 H         1 <0>         0.1051
     46 H14         3.9318   -7.7046    0.1319 H         1 <0>         0.1032
     47 H15         4.5167  -11.0576   -1.2460 H         1 <0>         0.0829
     48 H16         4.7611   -9.5255   -0.3675 H         1 <0>         0.0931
     49 H17         5.3154  -11.6403    0.9656 H         1 <0>         0.0867
     50 H18         4.1388  -10.5467    1.7394 H         1 <0>         0.0606
     51 H19         1.3112  -12.8761    0.6703 H         1 <0>         0.0858
     52 H20         1.5555  -11.3439    1.5488 H         1 <0>         0.0598
     53 H21         0.7562  -10.7601   -0.6535 H         1 <0>         0.1017
     54 H22         1.9288  -11.8554   -1.4308 H         1 <0>         0.0768
     55 H23         3.5183  -13.5333    3.2440 H         1 <0>         0.1315
     56 H24         4.2128  -15.8694    3.5858 H         1 <0>         0.1321
     57 H25         4.8000  -17.2773    1.6553 H         1 <0>         0.1351
     58 H26         4.6949  -16.3553   -0.6242 H         1 <0>         0.1368
     59 H27         4.5078   -0.3519   -0.1062 H         1 <0>         0.4557
@<TRIPOS>BOND
     1    1   14 ar
     2    1    2 ar
     3    1   34 1
     4    2    3 ar
     5    2   35 1
     6    3    4 ar
     7    3   36 1
     8    4   13 ar
     9    4    5 2
    10    5    6 1
    11    5   59 1
    12    6    7 1
    13    6   12 1
    14    6    8 1
    15    8    9 1
    16    8   37 1
    17    8   38 1
    18    9   10 1
    19    9   15 am
    20   10   11 1
    21   10   39 1
    22   10   40 1
    23   11   12 1
    24   11   41 1
    25   11   42 1
    26   12   13 2
    27   13   14 ar
    28   14   43 1
    29   15   16 2
    30   15   17 am
    31   17   18 1
    32   17   44 1
    33   18   19 1
    34   18   45 1
    35   18   46 1
    36   19   20 2
    37   19   21 am
    38   21   26 1
    39   21   22 1
    40   22   23 1
    41   22   47 1
    42   22   48 1
    43   23   24 1
    44   23   49 1
    45   23   50 1
    46   24   25 1
    47   24   27 1
    48   25   26 1
    49   25   51 1
    50   25   52 1
    51   26   53 1
    52   26   54 1
    53   27   32 ar
    54   27   28 ar
    55   28   29 ar
    56   28   55 1
    57   29   30 ar
    58   29   56 1
    59   30   31 ar
    60   30   57 1
    61   31   32 ar
    62   31   58 1
    63   32   33 1
@<TRIPOS>MOLECULE
ZINC64659819
   51    55     0     0     0
SMALL
USER_CHARGES

@<TRIPOS>ATOM
      1 C1         -0.0187    1.5258    0.0104 C.3       1 <0>        -0.1467
      2 C2          0.0021   -0.0041    0.0020 C.3       1 <0>        -0.1534
      3 C3          0.7182   -0.4975   -1.2568 C.3       1 <0>         0.3865
      4 H1          1.7404   -0.1189   -1.2622 H         1 <0>         0.1103
      5 N1          0.0108   -0.0029   -2.4435 N.pl3     1 <0>        -0.7477
      6 C4         -1.1718   -0.6260   -2.8262 C.ar      1 <0>         0.2336
      7 C5         -2.1714    0.0574   -3.4978 C.ar      1 <0>        -0.1835
      8 C6         -3.3250   -0.6073   -3.8672 C.ar      1 <0>        -0.0473
      9 C7         -3.4890   -1.9515   -3.5713 C.ar      1 <0>        -0.1687
     10 C8         -2.5046   -2.6458   -2.8992 C.ar      1 <0>        -0.0196
     11 C9         -1.3383   -1.9869   -2.5167 C.ar      1 <0>        -0.2058
     12 C10        -0.2684   -2.6783   -1.7758 C.2       1 <0>         0.5706
     13 O1         -0.3013   -3.8857   -1.6348 O.2       1 <0>        -0.5118
     14 N2          0.7435   -1.9604   -1.2576 N.am      1 <0>        -0.6216
     15 C11         1.8939   -2.6606   -0.6809 C.3       1 <0>         0.1985
     16 C12         1.6458   -2.9125    0.7840 C.2       1 <0>         0.2324
     17 N3          1.9734   -2.0841    1.7821 N.2       1 <0>        -0.5124
     18 C13         1.6209   -2.6007    2.9265 C.2       1 <0>         0.2633
     19 O2          1.0504   -3.7891    2.6922 O.3       1 <0>        -0.0933
     20 N4          1.0727   -3.9694    1.2840 N.2       1 <0>        -0.2755
     21 C14         1.8212   -1.9686    4.2798 C.3       1 <0>         0.0046
     22 C15         0.6190   -1.1278    4.6244 C.2       1 <0>         0.0466
     23 C16        -0.4500   -1.5019    5.3639 C.ar      1 <0>        -0.1457
     24 C17        -0.8005   -2.7558    6.0416 C.ar      1 <0>        -0.0181
     25 C18        -1.9682   -2.8307    6.7197 C.ar      1 <0>        -0.1429
     26 C19        -2.8501   -1.7435    6.7911 C.ar      1 <0>         0.0582
     27 C20        -2.5975   -0.5593    6.1946 C.ar      1 <0>        -0.2100
     28 C21        -1.3980   -0.3685    5.4548 C.ar      1 <0>         0.3304
     29 N5         -0.9332    0.6659    4.7972 N.pl3     1 <0>        -0.5775
     30 C22         0.3667    0.3072    4.2191 C.3       1 <0>         0.0637
     31 H2          1.0039    1.9031    0.0027 H         1 <0>         0.0622
     32 H3         -0.5459    1.8868   -0.8726 H         1 <0>         0.0659
     33 H4         -0.5289    1.8773    0.9072 H         1 <0>         0.0511
     34 H5          0.5293   -0.3651    0.8851 H         1 <0>         0.0733
     35 H6         -1.0205   -0.3814    0.0098 H         1 <0>         0.0636
     36 H7          0.3617    0.7453   -2.9514 H         1 <0>         0.4165
     37 H8         -2.0502    1.1048   -3.7313 H         1 <0>         0.1314
     38 H9         -4.1054   -0.0751   -4.3907 H         1 <0>         0.1320
     39 H10        -4.3947   -2.4590   -3.8688 H         1 <0>         0.1317
     40 H11        -2.6374   -3.6930   -2.6707 H         1 <0>         0.1361
     41 H12         2.0351   -3.6116   -1.1944 H         1 <0>         0.1234
     42 H13         2.7880   -2.0482   -0.7980 H         1 <0>         0.1242
     43 H14         1.9460   -2.7491    5.0304 H         1 <0>         0.1473
     44 H15         2.7109   -1.3392    4.2588 H         1 <0>         0.1586
     45 H16        -0.1360   -3.6061    5.9990 H         1 <0>         0.1649
     46 H17        -2.2281   -3.7523    7.2191 H         1 <0>         0.1614
     47 H18        -3.7697   -1.8583    7.3458 H         1 <0>         0.1638
     48 H19        -3.3103    0.2477    6.2795 H         1 <0>         0.1632
     49 H20         1.1488    0.9533    4.6179 H         1 <0>         0.1819
     50 H21         0.3281    0.3895    3.1329 H         1 <0>         0.1725
     51 H22        -1.3733    1.5260    4.7106 H         1 <0>         0.4577
@<TRIPOS>BOND
     1    1    2 1
     2    1   31 1
     3    1   32 1
     4    1   33 1
     5    2    3 1
     6    2   34 1
     7    2   35 1
     8    3    4 1
     9    3   14 1
    10    3    5 1
    11    5    6 1
    12    5   36 1
    13    6   11 ar
    14    6    7 ar
    15    7    8 ar
    16    7   37 1
    17    8    9 ar
    18    8   38 1
    19    9   10 ar
    20    9   39 1
    21   10   11 ar
    22   10   40 1
    23   11   12 1
    24   12   13 2
    25   12   14 am
    26   14   15 1
    27   15   16 1
    28   15   41 1
    29   15   42 1
    30   16   20 2
    31   16   17 1
    32   17   18 2
    33   18   19 1
    34   18   21 1
    35   19   20 1
    36   21   22 1
    37   21   43 1
    38   21   44 1
    39   22   30 1
    40   22   23 2
    41   23   28 ar
    42   23   24 ar
    43   24   25 ar
    44   24   45 1
    45   25   26 ar
    46   25   46 1
    47   26   27 ar
    48   26   47 1
    49   27   28 ar
    50   27   48 1
    51   28   29 2
    52   29   30 1
    53   29   51 1
    54   30   49 1
    55   30   50 1
@<TRIPOS>MOLECULE
ZINC02952882
   47    49     0     0     0
SMALL
USER_CHARGES
ethyl 4-[[9-carbamoyl-2-(hydroxymethyl)-5-methyl-7-oxa-4-azabicyclo[4.4.0]deca-2,4,9,11-tetraen-8-ylidene]amino]benzoate
@<TRIPOS>ATOM
      1 C1          4.5289   14.9579    0.0913 C.3       1 <0>        -0.1538
      2 C2          3.9677   14.1000    1.2270 C.3       1 <0>         0.0631
      3 O1          4.3152   12.7086    0.9996 O.3       1 <0>        -0.3545
      4 C3          3.8928   11.8148    1.9159 C.2       1 <0>         0.5106
      5 O2          3.2515   12.1881    2.8785 O.2       1 <0>        -0.5054
      6 C4          4.2082   10.3861    1.7506 C.ar      1 <0>        -0.1384
      7 C5          3.7693    9.4578    2.7024 C.ar      1 <0>        -0.0324
      8 C6          4.0617    8.1342    2.5498 C.ar      1 <0>        -0.1372
      9 C7          4.8007    7.7037    1.4405 C.ar      1 <0>         0.1315
     10 C8          5.2437    8.6333    0.4910 C.ar      1 <0>        -0.1398
     11 C9          4.9464    9.9561    0.6414 C.ar      1 <0>        -0.0393
     12 N1          5.0932    6.3823    1.2881 N.2       1 <0>        -0.4793
     13 C10         4.3153    5.6163    0.5507 C.2       1 <0>         0.3995
     14 C11         4.6748    4.2113    0.2766 C.2       1 <0>        -0.1690
     15 C12         3.6339    3.3313    0.0132 C.2       1 <0>         0.0470
     16 C13         2.2760    3.8785    0.0296 C.ar      1 <0>        -0.1065
     17 C14         1.1473    3.0498    0.0395 C.ar      1 <0>        -0.0836
     18 C15        -0.1000    3.6380    0.0674 C.ar      1 <0>         0.1122
     19 N2         -0.2369    4.9514    0.0789 N.ar      1 <0>        -0.4378
     20 C16         0.7928    5.7728    0.0631 C.ar      1 <0>         0.1375
     21 C17         2.0882    5.2739    0.0335 C.ar      1 <0>         0.0805
     22 O3          3.1616    6.0974    0.0113 O.3       1 <0>        -0.2510
     23 C18         0.5636    7.2622    0.0779 C.3       1 <0>        -0.1041
     24 C19         1.2921    1.5498    0.0262 C.3       1 <0>         0.1163
     25 O4         -0.0029    0.9461    0.0467 O.3       1 <0>        -0.5664
     26 C20         6.0791    3.7615    0.2828 C.2       1 <0>         0.5834
     27 O5          6.3457    2.5974    0.0539 O.2       1 <0>        -0.5371
     28 N3          7.0671    4.6407    0.5422 N.am      1 <0>        -0.8361
     29 H1          4.1050   14.6278   -0.8571 H         1 <0>         0.0676
     30 H2          4.2681   16.0024    0.2619 H         1 <0>         0.0820
     31 H3          5.6136   14.8548    0.0599 H         1 <0>         0.0675
     32 H4          2.8831   14.2031    1.2584 H         1 <0>         0.0720
     33 H5          4.3917   14.4301    2.1753 H         1 <0>         0.0718
     34 H6          3.1995    9.7898    3.5577 H         1 <0>         0.1431
     35 H7          3.7231    7.4182    3.2840 H         1 <0>         0.1337
     36 H8          5.8173    8.3023   -0.3621 H         1 <0>         0.1347
     37 H9          5.2842   10.6723   -0.0930 H         1 <0>         0.1443
     38 H10         3.8179    2.2877   -0.1952 H         1 <0>         0.1754
     39 H11        -0.9807    3.0130    0.0796 H         1 <0>         0.1811
     40 H12         0.5296    7.6144    1.1089 H         1 <0>         0.0851
     41 H13         1.3771    7.7602   -0.4495 H         1 <0>         0.0813
     42 H14        -0.3817    7.4892   -0.4150 H         1 <0>         0.0878
     43 H15         1.8554    1.2314    0.9034 H         1 <0>         0.0738
     44 H16         1.8214    1.2438   -0.8762 H         1 <0>         0.0749
     45 H17         0.0137   -0.0208    0.0396 H         1 <0>         0.3942
     46 H18         6.8545    5.5693    0.7249 H         1 <0>         0.4126
     47 H19         7.9909    4.3449    0.5463 H         1 <0>         0.4076
@<TRIPOS>BOND
     1    1    2 1
     2    1   29 1
     3    1   30 1
     4    1   31 1
     5    2    3 1
     6    2   32 1
     7    2   33 1
     8    3    4 1
     9    4    5 2
    10    4    6 1
    11    6   11 ar
    12    6    7 ar
    13    7    8 ar
    14    7   34 1
    15    8    9 ar
    16    8   35 1
    17    9   10 ar
    18    9   12 1
    19   10   11 ar
    20   10   36 1
    21   11   37 1
    22   12   13 2
    23   13   22 1
    24   13   14 1
    25   14   15 2
    26   14   26 1
    27   15   16 1
    28   15   38 1
    29   16   21 ar
    30   16   17 ar
    31   17   18 ar
    32   17   24 1
    33   18   19 ar
    34   18   39 1
    35   19   20 ar
    36   20   21 ar
    37   20   23 1
    38   21   22 1
    39   23   40 1
    40   23   41 1
    41   23   42 1
    42   24   25 1
    43   24   43 1
    44   24   44 1
    45   25   45 1
    46   26   27 2
    47   26   28 am
    48   28   46 1
    49   28   47 1
@<TRIPOS>MOLECULE
ZINC16701275
   46    48     0     0     0
SMALL
USER_CHARGES
(2S)-2-[[4-amino-5-(p-tolyl)-1,2,4-triazol-3-yl]sulfanyl]-N-(5-methylisoxazol-3-yl)butanamide
@<TRIPOS>ATOM
      1 C1          2.6319    5.0157    2.3637 C.3       1 <0>        -0.1616
      2 C2          1.7031    6.0038    1.6553 C.3       1 <0>        -0.1109
      3 C3          1.6391    5.6647    0.1647 C.3       1 <0>        -0.1190
      4 H1          2.6487    5.6375   -0.2454 H         1 <0>         0.1341
      5 C4          0.9868    4.3184   -0.0167 C.2       1 <0>         0.5523
      6 O1         -0.1814    4.2485   -0.3346 O.2       1 <0>        -0.4952
      7 N1          1.7017    3.1920    0.1745 N.am      1 <0>        -0.6227
      8 C5          1.0979    1.9457    0.0066 C.2       1 <0>         0.2439
      9 C6         -0.2507    1.6942   -0.3609 C.2       1 <0>        -0.2286
     10 C7         -0.3352    0.3447   -0.3884 C.2       1 <0>        -0.0178
     11 O2          0.8782   -0.1220   -0.0600 O.3       1 <0>         0.1005
     12 N2          1.6599    0.7749    0.1555 N.2       1 <0>        -0.3849
     13 C8         -1.5549   -0.4747   -0.7232 C.3       1 <0>        -0.0760
     14 S1          0.6705    6.9258   -0.6999 S.3       1 <0>         0.1177
     15 C9          1.7618    8.3017   -0.5561 C.2       1 <0>         0.1711
     16 N3          2.9751    8.2851   -0.0508 N.2       1 <0>        -0.2827
     17 N4          3.4901    9.4614   -0.1007 N.2       1 <0>        -0.2518
     18 C10         2.6377   10.3011   -0.6407 C.2       1 <0>         0.1984
     19 N5          1.5069    9.5829   -0.9544 N.pl3     1 <0>        -0.3013
     20 N6          0.3658   10.0538   -1.5393 N.3       1 <0>        -0.5866
     21 C11         2.8545   11.7449   -0.8737 C.ar      1 <0>        -0.0278
     22 C12         1.7735   12.5773   -1.1682 C.ar      1 <0>        -0.1174
     23 C13         1.9819   13.9247   -1.3793 C.ar      1 <0>        -0.1114
     24 C14         3.2604   14.4492   -1.3100 C.ar      1 <0>        -0.0664
     25 C15         4.3369   13.6285   -1.0242 C.ar      1 <0>        -0.1129
     26 C16         4.1416   12.2804   -0.8058 C.ar      1 <0>        -0.0658
     27 C17         3.4813   15.9209   -1.5475 C.3       1 <0>        -0.1212
     28 H2          2.1912    4.0191    2.3360 H         1 <0>         0.0560
     29 H3          3.5981    4.9998    1.8595 H         1 <0>         0.0657
     30 H4          2.7679    5.3241    3.4003 H         1 <0>         0.0715
     31 H5          2.0858    7.0166    1.7814 H         1 <0>         0.0926
     32 H6          0.7042    5.9366    2.0864 H         1 <0>         0.0812
     33 H7          2.6361    3.2479    0.4288 H         1 <0>         0.4230
     34 H8         -1.0275    2.4138   -0.5738 H         1 <0>         0.1909
     35 H9         -1.5789   -0.6689   -1.7955 H         1 <0>         0.0910
     36 H10        -1.5164   -1.4208   -0.1833 H         1 <0>         0.0860
     37 H11        -2.4514    0.0731   -0.4330 H         1 <0>         0.0942
     38 H12        -0.2921   10.3723   -0.8437 H         1 <0>         0.3697
     39 H13         0.5746   10.7858   -2.2016 H         1 <0>         0.3810
     40 H14         0.7756   12.1684   -1.2266 H         1 <0>         0.1150
     41 H15         1.1459   14.5706   -1.6035 H         1 <0>         0.1324
     42 H16         5.3323   14.0441   -0.9717 H         1 <0>         0.1347
     43 H17         4.9828   11.6407   -0.5832 H         1 <0>         0.1401
     44 H18         3.6628   16.0946   -2.6081 H         1 <0>         0.0767
     45 H19         2.5970   16.4761   -1.2345 H         1 <0>         0.0705
     46 H20         4.3437   16.2564   -0.9715 H         1 <0>         0.0718
@<TRIPOS>BOND
     1    1    2 1
     2    1   28 1
     3    1   29 1
     4    1   30 1
     5    2    3 1
     6    2   31 1
     7    2   32 1
     8    3    4 1
     9    3    5 1
    10    3   14 1
    11    5    6 2
    12    5    7 am
    13    7    8 1
    14    7   33 1
    15    8   12 2
    16    8    9 1
    17    9   10 2
    18    9   34 1
    19   10   11 1
    20   10   13 1
    21   11   12 1
    22   13   35 1
    23   13   36 1
    24   13   37 1
    25   14   15 1
    26   15   19 1
    27   15   16 2
    28   16   17 1
    29   17   18 2
    30   18   19 1
    31   18   21 1
    32   19   20 1
    33   20   38 1
    34   20   39 1
    35   21   26 ar
    36   21   22 ar
    37   22   23 ar
    38   22   40 1
    39   23   24 ar
    40   23   41 1
    41   24   25 ar
    42   24   27 1
    43   25   26 ar
    44   25   42 1
    45   26   43 1
    46   27   44 1
    47   27   45 1
    48   27   46 1
@<TRIPOS>MOLECULE
ZINC23741649
   45    47     0     0     0
SMALL
USER_CHARGES

@<TRIPOS>ATOM
      1 C1         -0.0187    1.5258    0.0104 C.3       1 <0>        -0.1703
      2 C2          0.0021   -0.0041    0.0020 C.3       1 <0>         0.0789
      3 H1          0.5123   -0.3556   -0.8948 H         1 <0>         0.1168
      4 C3          0.7309   -0.5033    1.2229 C.2       1 <0>         0.5248
      5 O1          0.1349   -1.1368    2.0683 O.2       1 <0>        -0.4751
      6 N1          2.0451   -0.2458    1.3755 N.am      1 <0>        -0.6457
      7 C4          2.7196   -0.7079    2.5054 C.2       1 <0>         0.3009
      8 C5          2.1802   -1.4316    3.5242 C.2       1 <0>        -0.2760
      9 C6          3.1945   -1.6880    4.4507 C.2       1 <0>         0.0588
     10 N2          4.3002   -1.1430    4.0117 N.2       1 <0>        -0.2823
     11 N3          4.0301   -0.5232    2.7850 N.pl3     1 <0>        -0.3803
     12 C7          4.9954    0.1999    1.9535 C.3       1 <0>         0.1559
     13 C8          5.5724    1.3745    2.7462 C.3       1 <0>        -0.1616
     14 C9          6.1272   -0.7457    1.5465 C.3       1 <0>        -0.1618
     15 O2         -1.3386   -0.4987    0.0122 O.3       1 <0>        -0.3171
     16 C10        -1.9240   -0.7040   -1.1843 C.2       1 <0>         0.5221
     17 O3         -1.3128   -0.4695   -2.2081 O.2       1 <0>        -0.5019
     18 C11        -3.3050   -1.2129   -1.2509 C.ar      1 <0>        -0.1394
     19 C12        -4.0222   -1.4817   -0.0760 C.ar      1 <0>        -0.0374
     20 C13        -5.2935   -1.9502   -0.1149 C.ar      1 <0>        -0.1007
     21 C14        -5.9484   -2.1870   -1.3494 C.ar      1 <0>         0.1776
     22 C15        -5.2036   -1.9081   -2.5217 C.ar      1 <0>        -0.1910
     23 C16        -3.9234   -1.4300   -2.4879 C.ar      1 <0>         0.0288
     24 S1         -6.3535   -2.3278   -3.8097 S.3       1 <0>         0.0067
     25 C17        -7.7028   -2.8294   -2.7504 C.2       1 <0>         0.4299
     26 N4         -7.1985   -2.6476   -1.5489 N.2       1 <0>        -0.5924
     27 N5         -8.9532   -3.2889   -3.1024 N.pl3     1 <0>        -0.7826
     28 H2          1.0039    1.9031    0.0027 H         1 <0>         0.0806
     29 H3         -0.5459    1.8868   -0.8726 H         1 <0>         0.0830
     30 H4         -0.5289    1.8773    0.9072 H         1 <0>         0.0792
     31 H5          2.5217    0.2608    0.6994 H         1 <0>         0.4106
     32 H6          1.1514   -1.7505    3.6027 H         1 <0>         0.1724
     33 H7          3.0846   -2.2411    5.3718 H         1 <0>         0.1874
     34 H8          4.4963    0.5749    1.0600 H         1 <0>         0.0899
     35 H9          6.0715    0.9995    3.6398 H         1 <0>         0.0746
     36 H10         6.2907    1.9125    2.1276 H         1 <0>         0.0767
     37 H11         4.7661    2.0482    3.0362 H         1 <0>         0.0604
     38 H12         5.7162   -1.5825    0.9818 H         1 <0>         0.0603
     39 H13         6.8455   -0.2077    0.9279 H         1 <0>         0.0768
     40 H14         6.6264   -1.1207    2.4401 H         1 <0>         0.0746
     41 H15        -3.5510   -1.3119    0.8808 H         1 <0>         0.1502
     42 H16        -5.8158   -2.1466    0.8098 H         1 <0>         0.1416
     43 H17        -3.3929   -1.2260   -3.4062 H         1 <0>         0.1471
     44 H18        -9.1930   -3.3735   -4.0385 H         1 <0>         0.4264
     45 H19        -9.5936   -3.5277   -2.4142 H         1 <0>         0.4225
@<TRIPOS>BOND
     1    1    2 1
     2    1   28 1
     3    1   29 1
     4    1   30 1
     5    2    3 1
     6    2    4 1
     7    2   15 1
     8    4    5 2
     9    4    6 am
    10    6    7 1
    11    6   31 1
    12    7   11 1
    13    7    8 2
    14    8    9 1
    15    8   32 1
    16    9   10 2
    17    9   33 1
    18   10   11 1
    19   11   12 1
    20   12   13 1
    21   12   14 1
    22   12   34 1
    23   13   35 1
    24   13   36 1
    25   13   37 1
    26   14   38 1
    27   14   39 1
    28   14   40 1
    29   15   16 1
    30   16   17 2
    31   16   18 1
    32   18   23 ar
    33   18   19 ar
    34   19   20 ar
    35   19   41 1
    36   20   21 ar
    37   20   42 1
    38   21   26 1
    39   21   22 ar
    40   22   23 ar
    41   22   24 1
    42   23   43 1
    43   24   25 1
    44   25   26 2
    45   25   27 1
    46   27   44 1
    47   27   45 1
@<TRIPOS>MOLECULE
ZINC06333791
   49    51     0     0     0
SMALL
USER_CHARGES

@<TRIPOS>ATOM
      1 C1         -0.1059    1.6510    0.6473 C.ar      1 <0>        -0.1719
      2 C2          1.1038    2.3146    0.5398 C.ar      1 <0>        -0.0311
      3 C3          2.2820    1.5760    0.6989 C.ar      1 <0>        -0.0748
      4 C4          2.1900    0.2076    0.9580 C.ar      1 <0>         0.1338
      5 N1          1.0146   -0.3787    1.0509 N.ar      1 <0>        -0.4822
      6 C5         -0.1122    0.2923    0.9059 C.ar      1 <0>         0.1134
      7 C6          3.6017    2.2340    0.5937 C.2       1 <0>         0.2617
      8 N2          3.8421    3.4253    0.0976 N.2       1 <0>        -0.2616
      9 N3          5.0997    3.6818    0.1623 N.2       1 <0>        -0.2750
     10 C7          5.7395    2.6694    0.7040 C.2       1 <0>         0.1291
     11 N4          4.8088    1.7158    1.0027 N.pl3     1 <0>        -0.3015
     12 N5          5.0304    0.4995    1.5836 N.3       1 <0>        -0.5821
     13 S1          7.4739    2.5651    0.9966 S.3       1 <0>        -0.0041
     14 C8          8.1181    4.1465    0.3845 C.3       1 <0>        -0.0959
     15 C9          9.6349    4.1895    0.5807 C.3       1 <0>        -0.0916
     16 C10        10.1783    5.5234    0.0644 C.3       1 <0>        -0.1285
     17 C11        11.6722    5.5658    0.2577 C.2       1 <0>         0.5298
     18 O1         12.2460    4.6219    0.7590 O.2       1 <0>        -0.5029
     19 N6         12.3709    6.6524   -0.1266 N.am      1 <0>        -0.5909
     20 N7         13.7597    6.6918    0.0531 N.2       1 <0>        -0.2383
     21 C12        14.4098    7.7614   -0.2155 C.2       1 <0>         0.1051
     22 C13        13.6855    9.0382   -0.5809 C.3       1 <0>        -0.1234
     23 C14        14.2154   10.1697    0.3061 C.3       1 <0>        -0.1114
     24 C15        15.7373   10.2486    0.1743 C.3       1 <0>        -0.1241
     25 C16        16.3706    8.9582    0.6972 C.3       1 <0>        -0.1177
     26 C17        15.9216    7.7825   -0.1695 C.3       1 <0>        -0.0622
     27 H1         -1.0354    2.1893    0.5348 H         1 <0>         0.1455
     28 H2          1.1379    3.3750    0.3380 H         1 <0>         0.1479
     29 H3          3.0904   -0.3754    1.0831 H         1 <0>         0.1661
     30 H4         -1.0548   -0.2279    0.9906 H         1 <0>         0.1627
     31 H5          5.2127   -0.2065    0.8861 H         1 <0>         0.3697
     32 H6          5.7842    0.5501    2.2524 H         1 <0>         0.3815
     33 H7          7.8859    4.2476   -0.6756 H         1 <0>         0.1020
     34 H8          7.6569    4.9650    0.9372 H         1 <0>         0.1020
     35 H9          9.8672    4.0885    1.6408 H         1 <0>         0.0868
     36 H10        10.0961    3.3710    0.0280 H         1 <0>         0.0869
     37 H11         9.9460    5.6245   -0.9957 H         1 <0>         0.1041
     38 H12         9.7171    6.3419    0.6171 H         1 <0>         0.1034
     39 H13        11.9121    7.4072   -0.5275 H         1 <0>         0.3860
     40 H14        13.8702    9.2769   -1.6283 H         1 <0>         0.0911
     41 H15        12.6157    8.9127   -0.4143 H         1 <0>         0.0675
     42 H16        13.7738   11.1153   -0.0085 H         1 <0>         0.0723
     43 H17        13.9502    9.9721    1.3447 H         1 <0>         0.0650
     44 H18        16.0036   10.3839   -0.8740 H         1 <0>         0.0678
     45 H19        16.1077   11.0945    0.7533 H         1 <0>         0.0691
     46 H20        17.4565    9.0450    0.6598 H         1 <0>         0.0763
     47 H21        16.0544    8.7892    1.7265 H         1 <0>         0.0665
     48 H22        16.2878    6.8507    0.2614 H         1 <0>         0.0866
     49 H23        16.3170    7.9030   -1.1781 H         1 <0>         0.0914
@<TRIPOS>BOND
     1    1    6 ar
     2    1    2 ar
     3    1   27 1
     4    2    3 ar
     5    2   28 1
     6    3    4 ar
     7    3    7 1
     8    4    5 ar
     9    4   29 1
    10    5    6 ar
    11    6   30 1
    12    7   11 1
    13    7    8 2
    14    8    9 1
    15    9   10 2
    16   10   11 1
    17   10   13 1
    18   11   12 1
    19   12   31 1
    20   12   32 1
    21   13   14 1
    22   14   15 1
    23   14   33 1
    24   14   34 1
    25   15   16 1
    26   15   35 1
    27   15   36 1
    28   16   17 1
    29   16   37 1
    30   16   38 1
    31   17   18 2
    32   17   19 am
    33   19   20 1
    34   19   39 1
    35   20   21 2
    36   21   26 1
    37   21   22 1
    38   22   23 1
    39   22   40 1
    40   22   41 1
    41   23   24 1
    42   23   42 1
    43   23   43 1
    44   24   25 1
    45   24   44 1
    46   24   45 1
    47   25   26 1
    48   25   46 1
    49   25   47 1
    50   26   48 1
    51   26   49 1
@<TRIPOS>MOLECULE
ZINC65136716
   51    52     0     0     0
SMALL
USER_CHARGES

@<TRIPOS>ATOM
      1 C1         -0.0187    1.5258    0.0104 C.3       1 <0>        -0.1483
      2 C2          0.0021   -0.0041    0.0020 C.3       1 <0>        -0.0930
      3 C3          0.7421   -0.5109    1.2415 C.3       1 <0>        -0.1543
      4 C4         -1.4333   -0.5336    0.0129 C.3       1 <0>        -0.1282
      5 C5         -1.4157   -2.0577   -0.1212 C.3       1 <0>         0.1319
      6 N1         -2.7901   -2.5647   -0.1108 N.am      1 <0>        -0.7441
      7 C6         -3.0208   -3.8883   -0.2174 C.2       1 <0>         0.7126
      8 O1         -2.0884   -4.6615   -0.3223 O.2       1 <0>        -0.5673
      9 N2         -4.2853   -4.3548   -0.2079 N.am      1 <0>        -0.5313
     10 N3         -5.3597   -3.4639   -0.0871 N.am      1 <0>        -0.5269
     11 C7         -6.6241   -3.9304   -0.0775 C.2       1 <0>         0.5536
     12 O2         -6.8326   -5.1258   -0.1738 O.2       1 <0>        -0.5330
     13 C8         -7.7458   -3.0004    0.0486 C.2       1 <0>        -0.2150
     14 C9         -9.0122   -3.4676    0.0582 C.2       1 <0>         0.0091
     15 C10       -10.1396   -2.5328    0.1849 C.ar      1 <0>        -0.0408
     16 C11       -11.4527   -3.0151    0.2009 C.ar      1 <0>        -0.1165
     17 C12       -12.5124   -2.1343    0.3215 C.ar      1 <0>         0.0845
     18 C13       -12.2732   -0.7676    0.4285 C.ar      1 <0>         0.0354
     19 C14       -10.9657   -0.2838    0.4110 C.ar      1 <0>         0.1354
     20 C15        -9.9026   -1.1582    0.2958 C.ar      1 <0>        -0.1865
     21 O3        -10.7360    1.0528    0.5126 O.3       1 <0>        -0.3016
     22 C16        -9.3728    1.4805    0.4879 C.3       1 <0>         0.0232
     23 O4        -13.3048    0.1109    0.5554 O.3       1 <0>        -0.2922
     24 C17       -14.6053   -0.3662    0.1943 C.3       1 <0>         0.0179
     25 C18       -14.8035   -1.7488    0.8301 C.3       1 <0>         0.0183
     26 O5        -13.7838   -2.6214    0.3314 O.3       1 <0>        -0.2998
     27 H1          1.0039    1.9031    0.0027 H         1 <0>         0.0577
     28 H2         -0.5459    1.8868   -0.8726 H         1 <0>         0.0550
     29 H3         -0.5289    1.8773    0.9072 H         1 <0>         0.0552
     30 H4          0.5123   -0.3556   -0.8948 H         1 <0>         0.0747
     31 H5          0.2319   -0.1594    2.1383 H         1 <0>         0.0555
     32 H6          0.7568   -1.6008    1.2356 H         1 <0>         0.0589
     33 H7          1.7647   -0.1336    1.2338 H         1 <0>         0.0572
     34 H8         -1.9156   -0.2570    0.9504 H         1 <0>         0.0706
     35 H9         -1.9862   -0.1019   -0.8214 H         1 <0>         0.0703
     36 H10        -0.9334   -2.3344   -1.0587 H         1 <0>         0.0707
     37 H11        -0.8628   -2.4894    0.7131 H         1 <0>         0.0739
     38 H12        -3.5340   -1.9479   -0.0272 H         1 <0>         0.3905
     39 H13        -4.4514   -5.3074   -0.2846 H         1 <0>         0.4446
     40 H14        -5.1936   -2.5113   -0.0103 H         1 <0>         0.4195
     41 H15        -7.5608   -1.9398    0.1340 H         1 <0>         0.1336
     42 H16        -9.1971   -4.5282   -0.0273 H         1 <0>         0.1445
     43 H17       -11.6391   -4.0757    0.1188 H         1 <0>         0.1456
     44 H18        -8.8905   -0.7813    0.2869 H         1 <0>         0.1439
     45 H19        -9.3309    2.5661    0.5769 H         1 <0>         0.1045
     46 H20        -8.8345    1.0268    1.3201 H         1 <0>         0.0576
     47 H21        -8.9131    1.1750   -0.4520 H         1 <0>         0.0576
     48 H22       -15.3652    0.3214    0.5655 H         1 <0>         0.1263
     49 H23       -14.6794   -0.4463   -0.8902 H         1 <0>         0.0801
     50 H24       -14.7221   -1.6701    1.9142 H         1 <0>         0.0818
     51 H25       -15.7851   -2.1395    0.5620 H         1 <0>         0.1269
@<TRIPOS>BOND
     1    1    2 1
     2    1   27 1
     3    1   28 1
     4    1   29 1
     5    2    3 1
     6    2    4 1
     7    2   30 1
     8    3   31 1
     9    3   32 1
    10    3   33 1
    11    4    5 1
    12    4   34 1
    13    4   35 1
    14    5    6 1
    15    5   36 1
    16    5   37 1
    17    6    7 am
    18    6   38 1
    19    7    8 2
    20    7    9 am
    21    9   10 1
    22    9   39 1
    23   10   11 am
    24   10   40 1
    25   11   12 2
    26   11   13 1
    27   13   14 2
    28   13   41 1
    29   14   15 1
    30   14   42 1
    31   15   20 ar
    32   15   16 ar
    33   16   17 ar
    34   16   43 1
    35   17   26 1
    36   17   18 ar
    37   18   19 ar
    38   18   23 1
    39   19   20 ar
    40   19   21 1
    41   20   44 1
    42   21   22 1
    43   22   45 1
    44   22   46 1
    45   22   47 1
    46   23   24 1
    47   24   25 1
    48   24   48 1
    49   24   49 1
    50   25   26 1
    51   25   50 1
    52   25   51 1
@<TRIPOS>MOLECULE
ZINC08215709
   50    53     0     0     0
SMALL
USER_CHARGES
3-[2-(1H-indol-3-yl)ethylamino]-1-(4-methyl-3-nitro-phenyl)-pyrrolidine-2,5-dione
@<TRIPOS>ATOM
      1 C1          6.6410    4.7074    2.1858 C.3       1 <0>        -0.1450
      2 C2          5.2692    4.1450    1.9158 C.ar      1 <0>         0.0142
      3 C3          4.2053    4.9992    1.6899 C.ar      1 <0>        -0.1066
      4 C4          2.9470    4.4867    1.4426 C.ar      1 <0>        -0.0403
      5 C5          2.7506    3.1123    1.4209 C.ar      1 <0>         0.0797
      6 C6          3.8193    2.2576    1.6532 C.ar      1 <0>        -0.0281
      7 C7          5.0767    2.7760    1.8948 C.ar      1 <0>        -0.0371
      8 N1          6.2180    1.8651    2.1371 N.pl3     1 <0>         0.0260
      9 O1          6.0754    0.6625    2.0078 O.2       1 <0>        -0.1551
     10 O2          7.2997    2.3183    2.4658 O.3       1 <0>        -0.1336
     11 N2          1.4742    2.5891    1.1706 N.am      1 <0>        -0.5161
     12 C8          0.4514    2.7357    2.0218 C.2       1 <0>         0.5201
     13 O3          0.4987    3.3213    3.0822 O.2       1 <0>        -0.4168
     14 C9         -0.7734    2.0553    1.4503 C.3       1 <0>        -0.1659
     15 C10        -0.2758    1.4841    0.1069 C.3       1 <0>        -0.0006
     16 H1         -0.3633    0.3976    0.0961 H         1 <0>         0.1963
     17 C11         1.1779    1.9017    0.0606 C.2       1 <0>         0.5118
     18 O4          1.9516    1.6529   -0.8388 O.2       1 <0>        -0.4150
     19 C12        -0.9649    1.2007   -2.1969 C.3       1 <0>        -0.0117
     20 C13        -1.7479    1.8453   -3.3424 C.3       1 <0>        -0.0562
     21 C14        -1.6927    0.9511   -4.5542 C.2       1 <0>        -0.2086
     22 C15        -0.8227    1.0393   -5.5726 C.2       1 <0>         0.0894
     23 N3         -1.0783    0.0577   -6.4910 N.pl3     1 <0>        -0.5871
     24 H2         -0.5809   -0.0803   -7.3122 H         1 <0>         0.4238
     25 C16        -2.1463   -0.7056   -6.0754 C.ar      1 <0>         0.0942
     26 C17        -2.5744   -0.1831   -4.8411 C.ar      1 <0>        -0.0999
     27 C18        -3.6512   -0.7683   -4.1729 C.ar      1 <0>        -0.0856
     28 C19        -4.2829   -1.8494   -4.7204 C.ar      1 <0>        -0.1314
     29 C20        -3.8623   -2.3706   -5.9360 C.ar      1 <0>        -0.0935
     30 C21        -2.8063   -1.8040   -6.6161 C.ar      1 <0>        -0.1207
     31 H3          6.8145    4.7413    3.2614 H         1 <0>         0.1017
     32 H4          7.3927    4.0730    1.7163 H         1 <0>         0.1065
     33 H5          6.7079    5.7149    1.7752 H         1 <0>         0.0842
     34 H6          4.3586    6.0681    1.7072 H         1 <0>         0.1647
     35 H7          2.1166    5.1542    1.2658 H         1 <0>         0.1490
     36 H8          3.6687    1.1882    1.6410 H         1 <0>         0.1584
     37 H9         -1.5728    2.7782    1.2872 H         1 <0>         0.1493
     38 H10        -1.1085    1.2531    2.1077 H         1 <0>         0.1670
     39 H11         0.0731    1.0620   -2.4991 H         1 <0>         0.1397
     40 H12        -1.4052    0.2333   -1.9550 H         1 <0>         0.1406
     41 H13        -2.7859    1.9839   -3.0401 H         1 <0>         0.0950
     42 H14        -1.3076    2.8126   -3.5843 H         1 <0>         0.0921
     43 H15        -0.0374    1.7761   -5.6551 H         1 <0>         0.1731
     44 H16        -3.9842   -0.3679   -3.2268 H         1 <0>         0.1184
     45 H17        -5.1158   -2.3020   -4.2029 H         1 <0>         0.1273
     46 H18        -4.3716   -3.2254   -6.3560 H         1 <0>         0.1318
     47 H19        -2.4854   -2.2180   -7.5605 H         1 <0>         0.1258
     48 N4         -1.0238    2.0817   -1.0152 N.4       1 <0>        -0.5044
     49 H20        -0.6114    2.9920   -1.2506 H         1 <0>         0.4352
     50 H21        -2.0039    2.2114   -0.7380 H         1 <0>         0.4441
@<TRIPOS>BOND
     1    1    2 1
     2    1   31 1
     3    1   32 1
     4    1   33 1
     5    2    7 ar
     6    2    3 ar
     7    3    4 ar
     8    3   34 1
     9    4    5 ar
    10    4   35 1
    11    5    6 ar
    12    5   11 1
    13    6    7 ar
    14    6   36 1
    15    7    8 1
    16    8    9 2
    17    8   10 1
    18   11   17 am
    19   11   12 am
    20   12   13 2
    21   12   14 1
    22   14   15 1
    23   14   37 1
    24   14   38 1
    25   15   16 1
    26   15   17 1
    27   15   48 1
    28   17   18 2
    29   19   20 1
    30   19   39 1
    31   19   40 1
    32   19   48 1
    33   20   21 1
    34   20   41 1
    35   20   42 1
    36   21   26 1
    37   21   22 2
    38   22   23 1
    39   22   43 1
    40   23   24 1
    41   23   25 1
    42   25   30 ar
    43   25   26 ar
    44   26   27 ar
    45   27   28 ar
    46   27   44 1
    47   28   29 ar
    48   28   45 1
    49   29   30 ar
    50   29   46 1
    51   30   47 1
    52   48   49 1
    53   48   50 1
@<TRIPOS>MOLECULE
ZINC21473088
   60    63     0     0     0
SMALL
USER_CHARGES
ethyl (6R)-4-[[(2S)-2-(2,3-dihydro-1,4-benzodioxin-6-yl)pyrrolidin-1-yl]methyl]-6-ethyl-2-oxo-3,6-dihydro-1H-pyrimidine-5-carboxylate
@<TRIPOS>ATOM
      1 C1          3.5217    1.8304   -0.6607 C.3       1 <0>        -0.1568
      2 C2          2.1564    1.1442   -0.5851 C.3       1 <0>        -0.1309
      3 C3          1.2239    1.9611    0.3115 C.3       1 <0>         0.1870
      4 H1          1.6327    2.2470    1.2919 H         1 <0>         0.0948
      5 C4          0.0036    1.1139    0.6101 C.2       1 <0>        -0.2345
      6 C5         -1.2046    1.6081    0.2642 C.2       1 <0>         0.2028
      7 N1         -1.3204    2.8258   -0.3431 N.am      1 <0>        -0.6620
      8 C6         -0.2773    3.6149   -0.6294 C.2       1 <0>         0.7011
      9 O1         -0.4805    4.6857   -1.1677 O.2       1 <0>        -0.5483
     10 N2          0.9905    3.2607   -0.3406 N.am      1 <0>        -0.7284
     11 C7         -2.4448    0.8001    0.5474 C.3       1 <0>         0.0021
     12 N3         -2.7378   -0.0664   -0.6020 N.4       1 <0>        -0.3999
     13 C8         -3.3004    0.7187   -1.7308 C.3       1 <0>        -0.0110
     14 C9         -4.0363   -0.3230   -2.6006 C.3       1 <0>        -0.1420
     15 C10        -4.3678   -1.4842   -1.6408 C.3       1 <0>        -0.1330
     16 C11        -3.8044   -1.0464   -0.2718 C.3       1 <0>         0.1004
     17 H2         -4.5555   -0.6029    0.3984 H         1 <0>         0.1495
     18 C12        -3.2234   -2.2288    0.4600 C.ar      1 <0>        -0.1278
     19 C13        -2.0056   -2.7526    0.0678 C.ar      1 <0>        -0.0772
     20 C14        -1.4680   -3.8347    0.7385 C.ar      1 <0>        -0.1002
     21 C15        -2.1540   -4.4045    1.8008 C.ar      1 <0>         0.0804
     22 C16        -3.3794   -3.8795    2.1935 C.ar      1 <0>         0.0610
     23 C17        -3.9117   -2.7911    1.5182 C.ar      1 <0>        -0.0835
     24 O2         -4.0651   -4.4180    3.2386 O.3       1 <0>        -0.3040
     25 C18        -3.6810   -5.7343    3.6506 C.3       1 <0>         0.0158
     26 C19        -2.1496   -5.7832    3.7380 C.3       1 <0>         0.0171
     27 O3         -1.6170   -5.4766    2.4448 O.3       1 <0>        -0.3012
     28 C20         0.1254   -0.1496    1.2345 C.2       1 <0>         0.5313
     29 O4         -0.8524   -0.8627    1.3605 O.2       1 <0>        -0.5184
     30 O5          1.3261   -0.5639    1.6903 O.3       1 <0>        -0.3306
     31 C21         1.3759   -1.8506    2.3100 C.3       1 <0>         0.0627
     32 C22         2.8085   -2.1451    2.7593 C.3       1 <0>        -0.1599
     33 H3          4.1921    1.2430   -1.3053 H         1 <0>         0.0660
     34 H4          3.9528    1.9012    0.3488 H         1 <0>         0.0644
     35 H5          3.4018    2.8403   -1.0799 H         1 <0>         0.0549
     36 H6          1.7253    1.0734   -1.5946 H         1 <0>         0.0682
     37 H7          2.2763    0.1343   -0.1659 H         1 <0>         0.0879
     38 H8         -2.3127    3.2076   -0.6252 H         1 <0>         0.4570
     39 H9          1.8406    3.9163   -0.5803 H         1 <0>         0.4668
     40 H10        -2.2825    0.1805    1.4417 H         1 <0>         0.1946
     41 H11        -3.2930    1.4788    0.7206 H         1 <0>         0.1389
     42 H12        -3.9871    1.4835   -1.3391 H         1 <0>         0.1329
     43 H13        -2.4828    1.2073   -2.2811 H         1 <0>         0.1280
     44 H14        -4.9472    0.1282   -3.0210 H         1 <0>         0.1143
     45 H15        -3.3772   -0.6488   -3.4188 H         1 <0>         0.1000
     46 H16        -5.4576   -1.6291   -1.6032 H         1 <0>         0.1171
     47 H17        -3.8876   -2.4060   -2.0009 H         1 <0>         0.1047
     48 H18        -1.4716   -2.3129   -0.7617 H         1 <0>         0.1157
     49 H19        -0.5148   -4.2398    0.4324 H         1 <0>         0.1388
     50 H20        -4.8647   -2.3825    1.8201 H         1 <0>         0.1403
     51 H21        -4.1225   -5.9542    4.6338 H         1 <0>         0.1322
     52 H22        -4.0408   -6.4685    2.9147 H         1 <0>         0.0847
     53 H23        -1.8007   -5.0449    4.4750 H         1 <0>         0.0844
     54 H24        -1.8320   -6.7895    4.0485 H         1 <0>         0.1328
     55 H25         0.7077   -1.8629    3.1837 H         1 <0>         0.0721
     56 H26         1.0524   -2.6170    1.5903 H         1 <0>         0.0736
     57 H27         2.8469   -3.1355    3.2363 H         1 <0>         0.0860
     58 H28         3.1319   -1.3787    3.4790 H         1 <0>         0.0707
     59 H29         3.4766   -2.1328    1.8855 H         1 <0>         0.0707
     60 H30        -1.7809   -0.5473   -0.8532 H         1 <0>         0.4457
@<TRIPOS>BOND
     1    1    2 1
     2    1   33 1
     3    1   34 1
     4    1   35 1
     5    2    3 1
     6    2   36 1
     7    2   37 1
     8    3    4 1
     9    3   10 1
    10    3    5 1
    11    5    6 2
    12    5   28 1
    13    6    7 1
    14    6   11 1
    15    7    8 am
    16    7   38 1
    17    8    9 2
    18    8   10 am
    19   10   39 1
    20   11   12 1
    21   11   40 1
    22   11   41 1
    23   12   16 1
    24   12   13 1
    25   12   60 1
    26   13   14 1
    27   13   42 1
    28   13   43 1
    29   14   15 1
    30   14   44 1
    31   14   45 1
    32   15   16 1
    33   15   46 1
    34   15   47 1
    35   16   17 1
    36   16   18 1
    37   18   23 ar
    38   18   19 ar
    39   19   20 ar
    40   19   48 1
    41   20   21 ar
    42   20   49 1
    43   21   27 1
    44   21   22 ar
    45   22   23 ar
    46   22   24 1
    47   23   50 1
    48   24   25 1
    49   25   26 1
    50   25   51 1
    51   25   52 1
    52   26   27 1
    53   26   53 1
    54   26   54 1
    55   28   29 2
    56   28   30 1
    57   30   31 1
    58   31   32 1
    59   31   55 1
    60   31   56 1
    61   32   57 1
    62   32   58 1
    63   32   59 1
@<TRIPOS>MOLECULE
ZINC36594977
   59    61     0     0     0
SMALL
USER_CHARGES

@<TRIPOS>ATOM
      1 C1         -0.5731    1.4897    3.4608 C.3       1 <0>        -0.1615
      2 C2         -0.5800   -0.0403    3.4609 C.3       1 <0>        -0.1004
      3 C3         -1.3135   -0.5469    4.7044 C.3       1 <0>        -0.1499
      4 C4         -1.2937   -0.5471    2.2060 C.3       1 <0>         0.1732
      5 H1         -0.7712   -0.1862    1.3201 H         1 <0>         0.1346
      6 C5         -2.7121   -0.0383    2.1948 C.2       1 <0>         0.4631
      7 O1         -3.6340   -0.8193    2.1875 O.2       1 <0>        -0.5034
      8 O2         -2.9514    1.2825    2.1927 O.3       1 <0>        -0.3353
      9 C6         -4.3199    1.6939    2.1819 C.3       1 <0>         0.0274
     10 N1         -1.3003   -2.0121    2.2061 N.am      1 <0>        -0.7277
     11 C7         -0.2417   -2.6908    1.7213 C.2       1 <0>         0.7241
     12 O3          0.6759   -2.0911    1.1952 O.2       1 <0>        -0.5547
     13 N2         -0.2002   -4.0344    1.8195 N.am      1 <0>        -0.6188
     14 C8          0.9923   -4.7838    1.3967 C.3       1 <0>         0.1164
     15 C9          1.6100   -5.4752    2.6190 C.3       1 <0>        -0.0796
     16 C10         0.5095   -6.1224    3.4182 C.2       1 <0>         0.0833
     17 C11        -0.8023   -5.8210    3.3100 C.2       1 <0>         0.0110
     18 N3         -1.4768   -6.5866    4.1706 N.pl3     1 <0>        -0.4565
     19 C12        -0.6346   -7.3564    4.8094 C.cat     1 <0>         0.3072
     20 N4          0.6165   -7.0957    4.3651 N.pl3     1 <0>        -0.5019
     21 H2          1.4351   -7.5213    4.6647 H         1 <0>         0.4676
     22 C13        -1.3466   -4.7875    2.3590 C.3       1 <0>         0.2626
     23 H3         -2.0172   -4.1121    2.8902 H         1 <0>         0.1250
     24 C14        -2.0864   -5.4689    1.2367 C.ar      1 <0>        -0.0530
     25 C15        -1.4594   -6.4504    0.4932 C.ar      1 <0>        -0.1780
     26 C16        -2.1385   -7.0794   -0.5408 C.ar      1 <0>         0.1769
     27 C17        -3.4470   -6.7222   -0.8274 C.ar      1 <0>        -0.2837
     28 C18        -4.0739   -5.7372   -0.0800 C.ar      1 <0>         0.1818
     29 C19        -3.3924   -5.1152    0.9566 C.ar      1 <0>        -0.1700
     30 O4         -5.3564   -5.3846   -0.3588 O.3       1 <0>        -0.3062
     31 C20        -5.9981   -6.0703   -1.4359 C.3       1 <0>         0.0226
     32 O5         -1.5212   -8.0443   -1.2720 O.3       1 <0>        -0.3106
     33 C21        -2.2805   -8.6489   -2.3208 C.3       1 <0>         0.0229
     34 H4         -1.5990    1.8577    3.4527 H         1 <0>         0.0795
     35 H5         -0.0646    1.8508    4.3548 H         1 <0>         0.0655
     36 H6         -0.0506    1.8506    2.5749 H         1 <0>         0.0650
     37 H7          0.4459   -0.4083    3.4691 H         1 <0>         0.0941
     38 H8         -2.3394   -0.1789    4.6963 H         1 <0>         0.0536
     39 H9         -1.3184   -1.6369    4.7045 H         1 <0>         0.0496
     40 H10        -0.8050   -0.1858    5.5984 H         1 <0>         0.0683
     41 H11        -4.3719    2.7826    2.1814 H         1 <0>         0.1097
     42 H12        -4.8087    1.3063    1.2880 H         1 <0>         0.0648
     43 H13        -4.8228    1.3065    3.0679 H         1 <0>         0.0639
     44 H14        -2.0667   -2.4936    2.5551 H         1 <0>         0.4018
     45 H15         0.7086   -5.5338    0.6584 H         1 <0>         0.0953
     46 H16         1.7183   -4.0977    0.9605 H         1 <0>         0.1299
     47 H17         2.3180   -6.2357    2.2896 H         1 <0>         0.1204
     48 H18         2.1237   -4.7374    3.2353 H         1 <0>         0.1170
     49 H19        -0.8948   -8.0810    5.5668 H         1 <0>         0.2713
     50 H20        -0.4399   -6.7281    0.7166 H         1 <0>         0.1332
     51 H21        -3.9771   -7.2103   -1.6319 H         1 <0>         0.1424
     52 H22        -3.8818   -4.3508    1.5420 H         1 <0>         0.1401
     53 H23        -7.0146   -5.6941   -1.5518 H         1 <0>         0.1103
     54 H24        -5.4410   -5.9015   -2.3574 H         1 <0>         0.0602
     55 H25        -6.0283   -7.1383   -1.2201 H         1 <0>         0.0593
     56 H26        -1.6714   -9.4000   -2.8237 H         1 <0>         0.1097
     57 H27        -3.1677   -9.1225   -1.9005 H         1 <0>         0.0591
     58 H28        -2.5814   -7.8854   -3.0381 H         1 <0>         0.0609
     59 H29        -2.4378   -6.5739    4.3012 H         1 <0>         0.4668
@<TRIPOS>BOND
     1    1    2 1
     2    1   34 1
     3    1   35 1
     4    1   36 1
     5    2    3 1
     6    2    4 1
     7    2   37 1
     8    3   38 1
     9    3   39 1
    10    3   40 1
    11    4    5 1
    12    4    6 1
    13    4   10 1
    14    6    7 2
    15    6    8 1
    16    8    9 1
    17    9   41 1
    18    9   42 1
    19    9   43 1
    20   10   11 am
    21   10   44 1
    22   11   12 2
    23   11   13 am
    24   13   22 1
    25   13   14 1
    26   14   15 1
    27   14   45 1
    28   14   46 1
    29   15   16 1
    30   15   47 1
    31   15   48 1
    32   16   20 1
    33   16   17 2
    34   17   18 1
    35   17   22 1
    36   18   19 2
    37   18   59 1
    38   19   20 1
    39   19   49 1
    40   20   21 1
    41   22   23 1
    42   22   24 1
    43   24   29 ar
    44   24   25 ar
    45   25   26 ar
    46   25   50 1
    47   26   27 ar
    48   26   32 1
    49   27   28 ar
    50   27   51 1
    51   28   29 ar
    52   28   30 1
    53   29   52 1
    54   30   31 1
    55   31   53 1
    56   31   54 1
    57   31   55 1
    58   32   33 1
    59   33   56 1
    60   33   57 1
    61   33   58 1
@<TRIPOS>MOLECULE
ZINC38806050
   58    61     0     0     0
SMALL
USER_CHARGES

@<TRIPOS>ATOM
      1 C1         -0.0187    1.5261    0.0104 C.3       1 <0>        -0.1716
      2 C2          0.0021   -0.0041    0.0020 C.3       1 <0>         0.0595
      3 C3         -1.4342   -0.5332   -0.0958 C.3       1 <0>        -0.0695
      4 C4         -2.1423   -0.1369    1.1905 C.2       1 <0>        -0.0300
      5 C5         -3.5472    0.1637    1.3537 C.2       1 <0>        -0.2152
      6 C6         -3.9723    0.5092    2.6312 C.2       1 <0>         0.0696
      7 S1         -2.5768    0.4369    3.5630 S.3       1 <0>         0.4012
      8 C7         -1.4118   -0.0529    2.3268 C.2       1 <0>        -0.3106
      9 C8          0.0477   -0.3317    2.4632 C.3       1 <0>         0.1652
     10 N1          0.6995   -0.5265    1.1690 N.4       1 <0>        -0.4926
     11 C9          0.7190    0.8181    3.2274 C.3       1 <0>        -0.1775
     12 C10         0.2176   -1.6161    3.2983 C.3       1 <0>        -0.1770
     13 N2         -5.2549    0.8379    3.0404 N.am      1 <0>        -0.6153
     14 C11        -5.4917    1.1501    4.3299 C.2       1 <0>         0.5024
     15 O1         -4.5822    1.1434    5.1323 O.2       1 <0>        -0.4797
     16 C12        -6.8864    1.5076    4.7749 C.3       1 <0>         0.1011
     17 N3         -6.8804    1.8037    6.2096 N.am      1 <0>        -0.5681
     18 C13        -7.0747    0.8888    7.1765 C.2       1 <0>         0.5821
     19 O2         -7.2802   -0.2952    7.0011 O.2       1 <0>        -0.4550
     20 C14        -6.9961    1.5658    8.4882 C.ar      1 <0>        -0.1403
     21 C15        -7.1134    1.1447    9.8031 C.ar      1 <0>        -0.0401
     22 C16        -6.9826    2.0631   10.8330 C.ar      1 <0>        -0.0901
     23 C17        -6.7362    3.3949   10.5571 C.ar      1 <0>        -0.0904
     24 C18        -6.6165    3.8306    9.2467 C.ar      1 <0>        -0.0400
     25 C19        -6.7448    2.9238    8.2068 C.ar      1 <0>        -0.1406
     26 C20        -6.6743    3.0253    6.7339 C.2       1 <0>         0.5828
     27 O3         -6.4669    4.0419    6.1025 O.2       1 <0>        -0.4560
     28 C21        -4.4889    0.1074    0.2335 C.2       1 <0>         0.5202
     29 O4         -5.0722   -0.9297   -0.0192 O.2       1 <0>        -0.4786
     30 O5         -4.7094    1.2055   -0.5180 O.3       1 <0>        -0.3451
     31 C22        -5.6406    1.0787   -1.5945 C.3       1 <0>         0.0269
     32 C23         0.7590   -0.4594   -1.2601 C.3       1 <0>        -0.1777
     33 H1          1.0039    1.9034    0.0027 H         1 <0>         0.0837
     34 H2         -0.5459    1.8872   -0.8726 H         1 <0>         0.1042
     35 H3         -0.5289    1.8777    0.9072 H         1 <0>         0.0832
     36 H4         -1.9298   -0.0843   -0.9551 H         1 <0>         0.1185
     37 H5         -1.4222   -1.6176   -0.1960 H         1 <0>         0.1096
     38 H6          0.8563   -1.5268    1.0319 H         1 <0>         0.4271
     39 H7          0.2718    0.9062    4.2175 H         1 <0>         0.1062
     40 H8          1.7851    0.6145    3.3270 H         1 <0>         0.0924
     41 H9          0.5766    1.7500    2.6802 H         1 <0>         0.0876
     42 H10        -0.2763   -2.4460    2.7929 H         1 <0>         0.0862
     43 H11         1.2787   -1.8388    3.4105 H         1 <0>         0.0909
     44 H12        -0.2294   -1.4717    4.2818 H         1 <0>         0.1077
     45 H13        -5.9823    0.8433    2.3987 H         1 <0>         0.4285
     46 H14        -7.2301    2.3834    4.2245 H         1 <0>         0.1436
     47 H15        -7.5560    0.6699    4.5796 H         1 <0>         0.1433
     48 H16        -7.3062    0.1053   10.0245 H         1 <0>         0.1452
     49 H17        -7.0743    1.7358   11.8581 H         1 <0>         0.1472
     50 H18        -6.6367    4.1011   11.3682 H         1 <0>         0.1472
     51 H19        -6.4243    4.8725    9.0370 H         1 <0>         0.1452
     52 H20        -5.2917    0.3140   -2.2886 H         1 <0>         0.0657
     53 H21        -6.6157    0.7933   -1.1997 H         1 <0>         0.0663
     54 H22        -5.7247    2.0319   -2.1164 H         1 <0>         0.1107
     55 H23         1.7760   -0.0681   -1.2348 H         1 <0>         0.0869
     56 H24         0.7894   -1.5485   -1.2924 H         1 <0>         0.0835
     57 H25         0.2470   -0.0838   -2.1461 H         1 <0>         0.1083
     58 H26         1.6296   -0.1055    1.2069 H         1 <0>         0.4307
@<TRIPOS>BOND
     1    1    2 1
     2    1   33 1
     3    1   34 1
     4    1   35 1
     5    2   10 1
     6    2    3 1
     7    2   32 1
     8    3    4 1
     9    3   36 1
    10    3   37 1
    11    4    8 2
    12    4    5 1
    13    5    6 2
    14    5   28 1
    15    6    7 1
    16    6   13 1
    17    7    8 1
    18    8    9 1
    19    9   10 1
    20    9   11 1
    21    9   12 1
    22   10   38 1
    23   10   58 1
    24   11   39 1
    25   11   40 1
    26   11   41 1
    27   12   42 1
    28   12   43 1
    29   12   44 1
    30   13   14 am
    31   13   45 1
    32   14   15 2
    33   14   16 1
    34   16   17 1
    35   16   46 1
    36   16   47 1
    37   17   26 am
    38   17   18 am
    39   18   19 2
    40   18   20 1
    41   20   25 ar
    42   20   21 ar
    43   21   22 ar
    44   21   48 1
    45   22   23 ar
    46   22   49 1
    47   23   24 ar
    48   23   50 1
    49   24   25 ar
    50   24   51 1
    51   25   26 1
    52   26   27 2
    53   28   29 2
    54   28   30 1
    55   30   31 1
    56   31   52 1
    57   31   53 1
    58   31   54 1
    59   32   55 1
    60   32   56 1
    61   32   57 1
@<TRIPOS>MOLECULE
ZINC60160064
   65    67     0     0     0
SMALL
USER_CHARGES

@<TRIPOS>ATOM
      1 C1         -1.3717    1.5802    0.7485 C.3       1 <0>        -0.1511
      2 C2         -1.1147    0.0813    0.5807 C.3       1 <0>        -0.0928
      3 C3         -2.4367   -0.6794    0.7007 C.3       1 <0>        -0.1186
      4 C4         -2.1797   -2.1783    0.5329 C.3       1 <0>        -0.1234
      5 C5         -1.2161   -2.6555    1.6213 C.3       1 <0>         0.1478
      6 C6          0.1060   -1.8948    1.5012 C.3       1 <0>        -0.1399
      7 C7         -0.1510   -0.3959    1.6690 C.3       1 <0>        -0.1134
      8 N1         -1.8053   -2.4056    2.9391 N.pl3     1 <0>        -1.1056
      9 S1         -1.5372   -3.4678    4.1809 S.o2      1 <0>         2.6967
     10 O1         -2.2090   -2.9420    5.3173 O.2       1 <0>        -0.9485
     11 O2         -1.8063   -4.7662    3.6700 O.2       1 <0>        -0.9453
     12 C8          0.1857   -3.4176    4.5465 C.ar      1 <0>        -0.7223
     13 C9          1.0550   -4.2720    3.8927 C.ar      1 <0>         0.0669
     14 C10         2.4058   -4.2349    4.1765 C.ar      1 <0>        -0.2109
     15 C11         2.8915   -3.3382    5.1200 C.ar      1 <0>         0.3159
     16 C12         2.0158   -2.4816    5.7747 C.ar      1 <0>        -0.1323
     17 C13         0.6664   -2.5203    5.4822 C.ar      1 <0>         0.0923
     18 N2          2.5287   -1.5250    6.7808 N.pl3     1 <0>         0.0390
     19 O3          3.4233   -1.8524    7.5252 O.2       1 <0>        -0.1772
     20 O4          2.0530   -0.4163    6.8583 O.3       1 <0>        -0.1281
     21 N3          4.2573   -3.2984    5.4098 N.pl3     1 <0>        -0.7267
     22 C14         5.1612   -4.2867    4.8161 C.3       1 <0>         0.1182
     23 C15         6.5907   -4.0214    5.2926 C.3       1 <0>        -0.1232
     24 H1          6.6271   -3.9951    6.3817 H         1 <0>         0.1254
     25 C16         7.1135   -2.6901    4.7059 C.3       1 <0>        -0.1471
     26 C17         8.5905   -3.0159    4.3699 C.3       1 <0>        -0.0028
     27 N4          8.5270   -4.4174    3.8822 N.4       1 <0>        -0.3935
     28 C18         7.5437   -5.1035    4.7520 C.3       1 <0>         0.0008
     29 C19         9.8437   -5.0569    4.0056 C.3       1 <0>         0.0272
     30 C20         9.7518   -6.5090    3.5324 C.3       1 <0>        -0.1837
     31 C21        10.8594   -4.3032    3.1447 C.3       1 <0>        -0.1834
     32 H2         -0.4298    2.1221    0.6630 H         1 <0>         0.0539
     33 H3         -2.0582    1.9202   -0.0269 H         1 <0>         0.0571
     34 H4         -1.8101    1.7661    1.7290 H         1 <0>         0.0558
     35 H5         -0.6762   -0.1046   -0.3998 H         1 <0>         0.0713
     36 H6         -2.8751   -0.4935    1.6812 H         1 <0>         0.0636
     37 H7         -3.1232   -0.3394   -0.0747 H         1 <0>         0.0704
     38 H8         -3.1216   -2.7202    0.6184 H         1 <0>         0.0765
     39 H9         -1.7413   -2.3642   -0.4476 H         1 <0>         0.0799
     40 H10        -1.0330   -3.7234    1.5017 H         1 <0>         0.0938
     41 H11         0.7925   -2.2348    2.2766 H         1 <0>         0.0603
     42 H12         0.5444   -2.0807    0.5208 H         1 <0>         0.0776
     43 H13         0.7908    0.1460    1.5835 H         1 <0>         0.0612
     44 H14        -0.5894   -0.2100    2.6495 H         1 <0>         0.0654
     45 H15        -2.3526   -1.6180    3.0842 H         1 <0>         0.4225
     46 H16         0.6767   -4.9691    3.1597 H         1 <0>         0.1604
     47 H17         3.0840   -4.9026    3.6659 H         1 <0>         0.1515
     48 H18        -0.0144   -1.8515    5.9876 H         1 <0>         0.1662
     49 H19         4.6073   -2.6163    6.0042 H         1 <0>         0.4165
     50 H20         4.8562   -5.2876    5.1216 H         1 <0>         0.0878
     51 H21         5.1202   -4.2101    3.7296 H         1 <0>         0.0787
     52 H22         6.5626   -2.4233    3.8040 H         1 <0>         0.1008
     53 H23         7.0532   -1.8923    5.4462 H         1 <0>         0.1202
     54 H24         8.9625   -2.3531    3.5885 H         1 <0>         0.1383
     55 H25         9.2123   -2.9469    5.2625 H         1 <0>         0.1372
     56 H26         8.0564   -5.5939    5.5795 H         1 <0>         0.1400
     57 H27         6.9826   -5.8367    4.1726 H         1 <0>         0.1359
     58 H28        10.1626   -5.0338    5.0477 H         1 <0>         0.1369
     59 H29         9.4330   -6.5320    2.4904 H         1 <0>         0.0807
     60 H30        10.7289   -6.9834    3.6240 H         1 <0>         0.1062
     61 H31         9.0282   -7.0459    4.1458 H         1 <0>         0.0804
     62 H32        10.9249   -3.2687    3.4818 H         1 <0>         0.0808
     63 H33        11.8364   -4.7777    3.2363 H         1 <0>         0.1063
     64 H34        10.5406   -4.3263    2.1026 H         1 <0>         0.0806
     65 H35         8.2174   -4.4380    2.9221 H         1 <0>         0.4249
@<TRIPOS>BOND
     1    1    2 1
     2    1   32 1
     3    1   33 1
     4    1   34 1
     5    2    7 1
     6    2    3 1
     7    2   35 1
     8    3    4 1
     9    3   36 1
    10    3   37 1
    11    4    5 1
    12    4   38 1
    13    4   39 1
    14    5    6 1
    15    5    8 1
    16    5   40 1
    17    6    7 1
    18    6   41 1
    19    6   42 1
    20    7   43 1
    21    7   44 1
    22    8    9 1
    23    8   45 1
    24    9   10 2
    25    9   11 2
    26    9   12 1
    27   12   17 ar
    28   12   13 ar
    29   13   14 ar
    30   13   46 1
    31   14   15 ar
    32   14   47 1
    33   15   16 ar
    34   15   21 1
    35   16   17 ar
    36   16   18 1
    37   17   48 1
    38   18   19 2
    39   18   20 1
    40   21   22 1
    41   21   49 1
    42   22   23 1
    43   22   50 1
    44   22   51 1
    45   23   24 1
    46   23   28 1
    47   23   25 1
    48   25   26 1
    49   25   52 1
    50   25   53 1
    51   26   27 1
    52   26   54 1
    53   26   55 1
    54   27   28 1
    55   27   29 1
    56   27   65 1
    57   28   56 1
    58   28   57 1
    59   29   30 1
    60   29   31 1
    61   29   58 1
    62   30   59 1
    63   30   60 1
    64   30   61 1
    65   31   62 1
    66   31   63 1
    67   31   64 1
@<TRIPOS>MOLECULE
ZINC67439140
   53    54     0     0     0
SMALL
USER_CHARGES

@<TRIPOS>ATOM
      1 C1         -0.0264    1.5358   -0.0418 C.3       1 <0>        -0.1517
      2 C2         -0.0063    0.0060   -0.0429 C.3       1 <0>        -0.1114
      3 H1          0.5090   -0.3506   -0.9347 H         1 <0>         0.0928
      4 C3         -1.4430   -0.5243   -0.0360 C.3       1 <0>        -0.1296
      5 C4         -1.4119   -2.0534    0.0419 C.3       1 <0>        -0.1137
      6 H2         -2.4309   -2.4355    0.1033 H         1 <0>         0.1224
      7 C5         -0.6306   -2.4794    1.2867 C.3       1 <0>        -0.0051
      8 N1          0.7416   -1.9641    1.2077 N.4       1 <0>        -0.3871
      9 C6          0.7239   -0.4963    1.2044 C.3       1 <0>        -0.0131
     10 C7          1.5094   -2.4404    2.3659 C.3       1 <0>        -0.0201
     11 C8          2.9701   -2.0087    2.2219 C.3       1 <0>         0.1186
     12 H3          3.0332   -0.9212    2.2617 H         1 <0>         0.1206
     13 C9          3.7943   -2.6093    3.3625 C.3       1 <0>        -0.1702
     14 N2          3.4949   -2.4817    0.9386 N.am      1 <0>        -0.7222
     15 C10         4.5283   -1.8420    0.3561 C.2       1 <0>         0.5200
     16 O1          5.0241   -0.8740    0.8948 O.2       1 <0>        -0.4797
     17 C11         5.0634   -2.3242   -0.9522 C.2       1 <0>         0.5128
     18 O2          4.5675   -3.2923   -1.4910 O.2       1 <0>        -0.4857
     19 N3          6.0968   -1.6844   -1.5347 N.am      1 <0>        -0.6368
     20 C12         6.6584   -2.1899   -2.7105 C.ar      1 <0>         0.1932
     21 C13         5.8533   -2.8171   -3.6530 C.ar      1 <0>        -0.1080
     22 C14         6.4114   -3.3155   -4.8137 C.ar      1 <0>        -0.0282
     23 C15         7.7704   -3.1915   -5.0389 C.ar      1 <0>        -0.0435
     24 C16         8.5755   -2.5683   -4.1033 C.ar      1 <0>        -0.0240
     25 C17         8.0230   -2.0612   -2.9423 C.ar      1 <0>        -0.0626
     26 Cl1         9.0330   -1.2720   -1.7715 Cl        1 <0>        -0.0193
     27 N4          8.3644   -3.7276   -6.2842 N.pl3     1 <0>         0.0298
     28 O3          7.6618   -4.2731   -7.1030 O.2       1 <0>        -0.1425
     29 O4          9.5521   -3.6199   -6.4825 O.3       1 <0>        -0.1424
     30 C18        -0.7301   -2.6149   -1.2074 C.3       1 <0>        -0.1715
     31 H4          0.9965    1.9126   -0.0451 H         1 <0>         0.0678
     32 H5         -0.5480    1.8930   -0.9298 H         1 <0>         0.0789
     33 H6         -0.5418    1.8918    0.8502 H         1 <0>         0.0690
     34 H7         -1.9744   -0.1259    0.8283 H         1 <0>         0.0851
     35 H8         -1.9496   -0.2162   -0.9506 H         1 <0>         0.0964
     36 H9         -1.1179   -2.0791    2.1757 H         1 <0>         0.1339
     37 H10        -0.6067   -3.5676    1.3454 H         1 <0>         0.1330
     38 H11         1.7471   -0.1205    1.2020 H         1 <0>         0.1282
     39 H12         0.2084   -0.1383    2.0956 H         1 <0>         0.1349
     40 H13         1.0927   -2.0140    3.2784 H         1 <0>         0.1538
     41 H14         1.4552   -3.5280    2.4154 H         1 <0>         0.1428
     42 H15         3.7312   -3.6968    3.3228 H         1 <0>         0.0750
     43 H16         4.8349   -2.3017    3.2599 H         1 <0>         0.0847
     44 H17         3.4038   -2.2574    4.3174 H         1 <0>         0.0869
     45 H18         3.0987   -3.2553    0.5080 H         1 <0>         0.4143
     46 H19         6.4508   -0.8732   -1.1379 H         1 <0>         0.4332
     47 H20         4.7921   -2.9152   -3.4780 H         1 <0>         0.1704
     48 H21         5.7857   -3.8032   -5.5466 H         1 <0>         0.1693
     49 H22         9.6364   -2.4738   -4.2820 H         1 <0>         0.1743
     50 H23         0.2893   -2.2337   -1.2674 H         1 <0>         0.0480
     51 H24        -0.7084   -3.7032   -1.1513 H         1 <0>         0.0747
     52 H25        -1.2856   -2.3078   -2.0935 H         1 <0>         0.0868
     53 H26         1.1759   -2.2955    0.3594 H         1 <0>         0.4169
@<TRIPOS>BOND
     1    1    2 1
     2    1   31 1
     3    1   32 1
     4    1   33 1
     5    2    3 1
     6    2    9 1
     7    2    4 1
     8    4    5 1
     9    4   34 1
    10    4   35 1
    11    5    6 1
    12    5    7 1
    13    5   30 1
    14    7    8 1
    15    7   36 1
    16    7   37 1
    17    8    9 1
    18    8   10 1
    19    8   53 1
    20    9   38 1
    21    9   39 1
    22   10   11 1
    23   10   40 1
    24   10   41 1
    25   11   12 1
    26   11   13 1
    27   11   14 1
    28   13   42 1
    29   13   43 1
    30   13   44 1
    31   14   15 am
    32   14   45 1
    33   15   16 2
    34   15   17 1
    35   17   18 2
    36   17   19 am
    37   19   20 1
    38   19   46 1
    39   20   25 ar
    40   20   21 ar
    41   21   22 ar
    42   21   47 1
    43   22   23 ar
    44   22   48 1
    45   23   24 ar
    46   23   27 1
    47   24   25 ar
    48   24   49 1
    49   25   26 1
    50   27   28 2
    51   27   29 1
    52   30   50 1
    53   30   51 1
    54   30   52 1
@<TRIPOS>MOLECULE
ZINC39605569
   49    52     0     0     0
SMALL
USER_CHARGES

@<TRIPOS>ATOM
      1 C1         -0.0173    1.4248    0.0099 C.3       1 <0>         0.0338
      2 O1          0.0021   -0.0041    0.0020 O.3       1 <0>        -0.3203
      3 C2         -1.2012   -0.6379    0.0101 C.ar      1 <0>         0.1451
      4 C3         -1.8032   -0.9610    1.2066 C.ar      1 <0>        -0.1085
      5 C4         -3.0415   -1.6128    1.2220 C.ar      1 <0>        -0.1568
      6 C5         -3.6670   -1.9358    0.0154 C.ar      1 <0>        -0.0428
      7 C6         -3.0604   -1.6103   -1.1832 C.ar      1 <0>         0.1132
      8 C7         -1.8305   -0.9569   -1.1918 C.ar      1 <0>         0.1122
      9 O2         -1.2412   -0.6348   -2.3731 O.3       1 <0>        -0.3194
     10 C8         -0.3669   -1.6076   -2.9485 C.3       1 <0>         0.0371
     11 O3         -3.6689   -1.9250   -2.3582 O.3       1 <0>        -0.3170
     12 C9         -4.5525   -0.9486   -2.9130 C.3       1 <0>         0.0268
     13 C10        -5.0004   -2.6381    0.0206 C.3       1 <0>        -0.0564
     14 S1         -6.3324   -1.4068    0.0308 S.3       1 <0>        -0.0883
     15 C11        -7.8494   -2.4014    0.0362 C.3       1 <0>         0.0047
     16 H1         -7.6911   -3.2455   -0.6349 H         1 <0>         0.2328
     17 C12        -8.0354   -2.9509    1.4322 C.2       1 <0>         0.4961
     18 O4         -7.1732   -3.6372    1.9434 O.2       1 <0>        -0.2985
     19 N1         -9.1593   -2.6716    2.0957 N.am      1 <0>        -0.5093
     20 C13       -10.1127   -1.9268    1.5620 C.ar      1 <0>         0.3784
     21 C14       -11.2903   -1.6504    2.2922 C.ar      1 <0>        -0.2024
     22 C15       -12.2699   -0.8893    1.7504 C.ar      1 <0>         0.1291
     23 C16       -12.1798   -0.3397    0.4610 C.ar      1 <0>        -0.0132
     24 C17       -11.0974   -0.5414   -0.3222 C.ar      1 <0>        -0.1161
     25 C18        -9.9883   -1.3595    0.1956 C.ar      1 <0>         0.3298
     26 N2         -8.9289   -1.5761   -0.5279 N.pl3     1 <0>        -0.3901
     27 C19        -3.4192   -1.8188    2.6299 C.2       1 <0>         0.5305
     28 O5         -4.4409   -2.3589    3.0050 O.2       1 <0>        -0.4482
     29 O6         -2.4684   -1.3226    3.4393 O.3       1 <0>        -0.2953
     30 C20        -1.4147   -0.7640    2.6500 C.3       1 <0>         0.0912
     31 H2          1.0053    1.8021    0.0021 H         1 <0>         0.1133
     32 H3         -0.5445    1.7859   -0.8732 H         1 <0>         0.0588
     33 H4         -0.5275    1.7763    0.9067 H         1 <0>         0.0523
     34 H5          0.0353   -1.2251   -3.8866 H         1 <0>         0.1102
     35 H6          0.4520   -1.8131   -2.2591 H         1 <0>         0.0604
     36 H7         -0.9210   -2.5268   -3.1387 H         1 <0>         0.0569
     37 H8         -4.9694   -1.3250   -3.8472 H         1 <0>         0.1082
     38 H9         -5.3604   -0.7481   -2.2093 H         1 <0>         0.0455
     39 H10        -4.0018   -0.0280   -3.1058 H         1 <0>         0.0634
     40 H11        -5.0870   -3.2597   -0.8706 H         1 <0>         0.1345
     41 H12        -5.0777   -3.2644    0.9093 H         1 <0>         0.1410
     42 H13       -11.4097   -2.0491    3.2888 H         1 <0>         0.2137
     43 H14       -13.1581   -0.6968    2.3339 H         1 <0>         0.2095
     44 H15       -12.9966    0.2590    0.0858 H         1 <0>         0.2107
     45 H16       -11.0470   -0.1106   -1.3113 H         1 <0>         0.2166
     46 H17        -0.4782   -1.2813    2.8582 H         1 <0>         0.1375
     47 H18        -1.3101    0.2992    2.8664 H         1 <0>         0.1301
     48 H19        -8.8531   -1.2022   -1.4197 H         1 <0>         0.4855
     49 H20        -9.2799   -3.0239    2.9914 H         1 <0>         0.4735
@<TRIPOS>BOND
     1    1    2 1
     2    1   31 1
     3    1   32 1
     4    1   33 1
     5    2    3 1
     6    3    8 ar
     7    3    4 ar
     8    4   30 1
     9    4    5 ar
    10    5    6 ar
    11    5   27 1
    12    6    7 ar
    13    6   13 1
    14    7    8 ar
    15    7   11 1
    16    8    9 1
    17    9   10 1
    18   10   34 1
    19   10   35 1
    20   10   36 1
    21   11   12 1
    22   12   37 1
    23   12   38 1
    24   12   39 1
    25   13   14 1
    26   13   40 1
    27   13   41 1
    28   14   15 1
    29   15   16 1
    30   15   26 1
    31   15   17 1
    32   17   18 2
    33   17   19 am
    34   19   20 2
    35   19   49 1
    36   20   25 ar
    37   20   21 ar
    38   21   22 ar
    39   21   42 1
    40   22   23 ar
    41   22   43 1
    42   23   24 ar
    43   23   44 1
    44   24   25 ar
    45   24   45 1
    46   25   26 2
    47   26   48 1
    48   27   28 2
    49   27   29 1
    50   29   30 1
    51   30   46 1
    52   30   47 1
@<TRIPOS>MOLECULE
ZINC57773762
   65    67     0     0     0
SMALL
USER_CHARGES

@<TRIPOS>ATOM
      1 C1         -0.3049    1.4877   -0.1561 C.3       1 <0>        -0.1638
      2 C2          0.0017   -0.0030    0.0014 C.3       1 <0>         0.1224
      3 H1          0.7104   -0.1439    0.8176 H         1 <0>         0.1217
      4 C3          0.5976   -0.5312   -1.2780 C.2       1 <0>         0.5170
      5 O1         -0.0880   -1.1700   -2.0479 O.2       1 <0>        -0.5253
      6 N1          1.8925   -0.2937   -1.5667 N.am      1 <0>        -0.6059
      7 C4          2.7652    0.3768   -0.5927 C.3       1 <0>         0.0857
      8 C5          3.9876   -0.5133   -0.3359 C.3       1 <0>         0.0953
      9 N2          4.5522   -0.9205   -1.6301 N.am      1 <0>        -0.6119
     10 C6          3.6795   -1.5910   -2.6042 C.3       1 <0>         0.0908
     11 C7          2.4586   -0.7059   -2.8588 C.3       1 <0>         0.0963
     12 C8          5.8471   -0.6831   -1.9188 C.2       1 <0>         0.5221
     13 O2          6.5576   -0.1286   -1.1072 O.2       1 <0>        -0.5248
     14 C9          6.4122   -1.1064   -3.2502 C.3       1 <0>        -0.1637
     15 C10         7.8914   -0.7222   -3.3218 C.3       1 <0>         0.1101
     16 N3          8.4408   -1.1338   -4.6160 N.pl3     1 <0>        -0.4552
     17 C11         9.0948   -2.3102   -4.8527 C.2       1 <0>         0.1252
     18 C12         9.4685   -2.3765   -6.1426 C.2       1 <0>        -0.1899
     19 C13         9.0170   -1.1436   -6.7811 C.ar      1 <0>        -0.0189
     20 C14         8.3698   -0.3961   -5.7748 C.ar      1 <0>         0.0556
     21 C15         7.8305    0.8383   -6.1104 C.ar      1 <0>         0.1501
     22 N4          7.9241    1.2908   -7.3444 N.ar      1 <0>        -0.4324
     23 C16         8.5223    0.6111   -8.3086 C.ar      1 <0>         0.0637
     24 C17         9.0896   -0.6095   -8.0709 C.ar      1 <0>        -0.0601
     25 N5         -1.2363   -0.7275    0.2991 N.am      1 <0>        -0.6892
     26 C18        -1.6765   -0.8159    1.5699 C.2       1 <0>         0.5098
     27 O3         -1.0476   -0.2957    2.4670 O.2       1 <0>        -0.5188
     28 C19        -2.9500   -1.5611    1.8761 C.3       1 <0>         0.0128
     29 H2         -3.6898   -1.3488    1.1042 H         1 <0>         0.1690
     30 C20        -2.6658   -3.0641    1.9103 C.3       1 <0>        -0.1103
     31 C21        -1.7231   -3.3785    3.0737 C.3       1 <0>        -0.1758
     32 C22        -3.9786   -3.8273    2.0971 C.3       1 <0>        -0.1688
     33 N6         -3.4673   -1.1307    3.1818 N.4       1 <0>        -0.6224
     34 H3          0.6170    2.0274   -0.3723 H         1 <0>         0.0822
     35 H4         -1.0095    1.6291   -0.9756 H         1 <0>         0.0735
     36 H5         -0.7408    1.8685    0.7676 H         1 <0>         0.0806
     37 H6          3.0898    1.3374   -0.9927 H         1 <0>         0.0871
     38 H7          2.2223    0.5306    0.3398 H         1 <0>         0.1030
     39 H8          4.7340    0.0446    0.2296 H         1 <0>         0.1152
     40 H9          3.6850   -1.3972    0.2256 H         1 <0>         0.0792
     41 H10         4.2224   -1.7448   -3.5367 H         1 <0>         0.0999
     42 H11         3.3550   -2.5516   -2.2042 H         1 <0>         0.0839
     43 H12         1.7131   -1.2670   -3.4225 H         1 <0>         0.1128
     44 H13         2.7608    0.1758   -3.4239 H         1 <0>         0.0787
     45 H14         6.3114   -2.1861   -3.3609 H         1 <0>         0.1113
     46 H15         5.8678   -0.6066   -4.0514 H         1 <0>         0.1012
     47 H16         7.9922    0.3575   -3.2111 H         1 <0>         0.1094
     48 H17         8.4358   -1.2220   -2.5205 H         1 <0>         0.1228
     49 H18         9.2839   -3.0739   -4.1128 H         1 <0>         0.2009
     50 H19        10.0017   -3.1876   -6.6164 H         1 <0>         0.1799
     51 H20         7.3319    1.4300   -5.3570 H         1 <0>         0.2004
     52 H21         8.5686    1.0318   -9.3022 H         1 <0>         0.2071
     53 H22         9.5745   -1.1555   -8.8665 H         1 <0>         0.1838
     54 H23        -1.7393   -1.1435   -0.4184 H         1 <0>         0.4209
     55 H24        -2.1995   -3.3672    0.9728 H         1 <0>         0.1227
     56 H25        -1.5206   -4.4492    3.0981 H         1 <0>         0.0928
     57 H26        -0.7878   -2.8347    2.9407 H         1 <0>         0.0739
     58 H27        -2.1894   -3.0754    4.0112 H         1 <0>         0.0585
     59 H28        -4.6501   -3.6033    1.2683 H         1 <0>         0.0788
     60 H29        -3.7761   -4.8980    2.1215 H         1 <0>         0.0917
     61 H30        -4.4448   -3.5242    3.0346 H         1 <0>         0.0582
     62 H31        -4.3200   -1.6297    3.3868 H         1 <0>         0.4431
     63 H32        -2.7826   -1.3273    3.8963 H         1 <0>         0.4409
     64 H33        -3.6548   -0.1395    3.1592 H         1 <0>         0.4414
     65 H34         7.5390    2.1561   -7.5539 H         1 <0>         0.4534
@<TRIPOS>BOND
     1    1    2 1
     2    1   34 1
     3    1   35 1
     4    1   36 1
     5    2    3 1
     6    2    4 1
     7    2   25 1
     8    4    5 2
     9    4    6 am
    10    6   11 1
    11    6    7 1
    12    7    8 1
    13    7   37 1
    14    7   38 1
    15    8    9 1
    16    8   39 1
    17    8   40 1
    18    9   10 1
    19    9   12 am
    20   10   11 1
    21   10   41 1
    22   10   42 1
    23   11   43 1
    24   11   44 1
    25   12   13 2
    26   12   14 1
    27   14   15 1
    28   14   45 1
    29   14   46 1
    30   15   16 1
    31   15   47 1
    32   15   48 1
    33   16   20 1
    34   16   17 1
    35   17   18 2
    36   17   49 1
    37   18   19 1
    38   18   50 1
    39   19   24 ar
    40   19   20 ar
    41   20   21 ar
    42   21   22 ar
    43   21   51 1
    44   22   23 ar
    45   22   65 1
    46   23   24 ar
    47   23   52 1
    48   24   53 1
    49   25   26 am
    50   25   54 1
    51   26   27 2
    52   26   28 1
    53   28   29 1
    54   28   30 1
    55   28   33 1
    56   30   31 1
    57   30   32 1
    58   30   55 1
    59   31   56 1
    60   31   57 1
    61   31   58 1
    62   32   59 1
    63   32   60 1
    64   32   61 1
    65   33   62 1
    66   33   63 1
    67   33   64 1
@<TRIPOS>MOLECULE
ZINC63520958
   45    47     0     0     0
SMALL
USER_CHARGES

@<TRIPOS>ATOM
      1 C1         -0.0167    1.3781    0.0096 C.ar      1 <0>        -0.1197
      2 C2          1.1709    2.0855    0.0021 C.ar      1 <0>        -0.0191
      3 C3          2.3773    1.4107   -0.0130 C.ar      1 <0>        -0.6605
      4 C4          2.3960    0.0285   -0.0201 C.ar      1 <0>        -0.0138
      5 C5          1.2085   -0.6789   -0.0117 C.ar      1 <0>        -0.1198
      6 C6          0.0021   -0.0041    0.0020 C.ar      1 <0>        -0.0723
      7 C7         -1.2926   -0.7753    0.0107 C.3       1 <0>         0.1538
      8 N1         -1.7258   -1.0177   -1.3676 N.am      1 <0>        -0.7016
      9 C8         -2.8667   -1.6945   -1.6063 C.2       1 <0>         0.5333
     10 O1         -3.5346   -2.1028   -0.6800 O.2       1 <0>        -0.5011
     11 C9         -3.3123   -1.9439   -3.0241 C.3       1 <0>        -0.2117
     12 S1         -4.8707   -2.8722   -3.0137 S.3       1 <0>         0.1501
     13 C10        -5.2652   -3.0874   -4.7711 C.3       1 <0>         0.1958
     14 H1         -6.2039   -3.6306   -4.8798 H         1 <0>         0.2856
     15 N2         -5.3611   -1.7787   -5.4300 N.pl3     1 <0>        -0.4478
     16 C11        -4.4549   -1.7442   -6.3638 C.ar      1 <0>         0.3047
     17 C12        -4.0691   -0.7199   -7.3442 C.ar      1 <0>        -0.0997
     18 C13        -3.0667   -0.9717   -8.2097 C.ar      1 <0>         0.0338
     19 C14        -2.3609   -2.1879   -8.2192 C.ar      1 <0>         0.0929
     20 C15        -2.6341   -3.1935   -7.3639 C.ar      1 <0>        -0.0582
     21 C16        -3.7078   -3.0316   -6.3739 C.ar      1 <0>         0.3130
     22 N3         -4.1817   -3.8134   -5.4456 N.pl3     1 <0>        -0.4255
     23 N4         -1.2752   -2.3716   -9.2081 N.pl3     1 <0>        -0.0098
     24 O2         -1.0104   -1.4854   -9.9867 O.2       1 <0>        -0.0582
     25 O3         -0.6530   -3.4078   -9.2373 O.3       1 <0>        -0.0765
     26 S2          3.8911    2.3124   -0.0238 S.o2      1 <0>         2.6991
     27 O4          4.8717    1.4529   -0.5884 O.2       1 <0>        -0.9556
     28 O5          3.5973    3.5927   -0.5658 O.2       1 <0>        -0.9532
     29 N5          4.3274    2.5556    1.5551 N.pl3     1 <0>        -1.2445
     30 H2         -0.9591    1.9053    0.0259 H         1 <0>         0.1372
     31 H3          1.1563    3.1654    0.0076 H         1 <0>         0.1512
     32 H4          3.3385   -0.4987   -0.0326 H         1 <0>         0.1511
     33 H5          1.2231   -1.7588   -0.0179 H         1 <0>         0.1371
     34 H6         -1.1443   -1.7285    0.5180 H         1 <0>         0.0962
     35 H7         -2.0551   -0.1993    0.5352 H         1 <0>         0.0963
     36 H8         -1.1916   -0.6912   -2.1085 H         1 <0>         0.4084
     37 H9         -3.4606   -0.9907   -3.5314 H         1 <0>         0.1356
     38 H10        -2.5498   -2.5199   -3.5486 H         1 <0>         0.1336
     39 H11        -4.5855    0.2283   -7.3714 H         1 <0>         0.2269
     40 H12        -2.7951   -0.2090   -8.9245 H         1 <0>         0.2255
     41 H13        -2.0670   -4.1117   -7.4055 H         1 <0>         0.2332
     42 H14         5.2650    2.6226    1.7943 H         1 <0>         0.4273
     43 H15         3.6453    2.6310    2.2406 H         1 <0>         0.4184
     44 H16        -3.8751   -4.7098   -5.2374 H         1 <0>         0.5044
     45 H17        -5.9857   -1.0699   -5.2101 H         1 <0>         0.5041
@<TRIPOS>BOND
     1    1    6 ar
     2    1    2 ar
     3    1   30 1
     4    2    3 ar
     5    2   31 1
     6    3    4 ar
     7    3   26 1
     8    4    5 ar
     9    4   32 1
    10    5    6 ar
    11    5   33 1
    12    6    7 1
    13    7    8 1
    14    7   34 1
    15    7   35 1
    16    8    9 am
    17    8   36 1
    18    9   10 2
    19    9   11 1
    20   11   12 1
    21   11   37 1
    22   11   38 1
    23   12   13 1
    24   13   14 1
    25   13   22 1
    26   13   15 1
    27   15   16 2
    28   15   45 1
    29   16   21 ar
    30   16   17 ar
    31   17   18 ar
    32   17   39 1
    33   18   19 ar
    34   18   40 1
    35   19   20 ar
    36   19   23 1
    37   20   21 ar
    38   20   41 1
    39   21   22 2
    40   22   44 1
    41   23   24 2
    42   23   25 1
    43   26   27 2
    44   26   28 2
    45   26   29 1
    46   29   42 1
    47   29   43 1
@<TRIPOS>MOLECULE
ZINC64031354
   46    50     0     0     0
SMALL
USER_CHARGES

@<TRIPOS>ATOM
      1 C1         -0.0163    1.3536    0.0095 C.ar      1 <0>        -0.1191
      2 C2          1.1634    2.1012    0.0022 C.ar      1 <0>         0.0528
      3 C3          2.3839    1.5114   -0.0131 C.ar      1 <0>        -0.1988
      4 C4          2.4834    0.0958   -0.0216 C.ar      1 <0>         0.3221
      5 N1          3.5308   -0.7047   -0.0371 N.pl3     1 <0>        -0.5749
      6 C5          3.0750   -2.0981   -0.0406 C.3       1 <0>         0.0832
      7 C6          1.5633   -2.0436   -0.0248 C.2       1 <0>         0.0972
      8 C7          1.2369   -0.6873   -0.0135 C.ar      1 <0>        -0.0910
      9 C8          0.0021   -0.0041    0.0020 C.ar      1 <0>        -0.0392
     10 C9          0.6756   -3.1295   -0.0220 C.2       1 <0>         0.1688
     11 N2         -0.6459   -3.0614   -0.0144 N.2       1 <0>        -0.1727
     12 N3         -1.1318   -4.2529   -0.0149 N.2       1 <0>        -0.2619
     13 C10        -0.1412   -5.1312   -0.0230 C.2       1 <0>         0.1750
     14 O1          1.0129   -4.4414   -0.0327 O.3       1 <0>        -0.1782
     15 S1         -0.3054   -6.8856   -0.0260 S.3       1 <0>         0.1084
     16 C11        -2.0988   -7.1585   -0.0165 C.3       1 <0>        -0.1768
     17 C12        -2.3860   -8.6613   -0.0182 C.3       1 <0>         0.2802
     18 H1         -3.4613   -8.8393   -0.0250 H         1 <0>         0.1920
     19 N4         -1.7732   -9.2970    1.1544 N.pl3     1 <0>        -0.6250
     20 C13        -0.9111  -10.1767    0.7475 C.cat     1 <0>         0.5719
     21 N5         -0.8535  -10.2259   -0.6231 N.pl3     1 <0>        -0.4981
     22 O2         -1.7721   -9.2832   -1.1574 O.3       1 <0>        -0.0873
     23 C14        -0.0921  -11.0205    1.6477 C.ar      1 <0>        -0.1334
     24 C15        -0.5850  -11.3940    2.8978 C.ar      1 <0>        -0.0119
     25 C16         0.1827  -12.1803    3.7321 C.ar      1 <0>        -0.0985
     26 C17         1.4392  -12.5981    3.3308 C.ar      1 <0>         0.0116
     27 C18         1.9334  -12.2309    2.0922 C.ar      1 <0>        -0.0399
     28 C19         1.1726  -11.4495    1.2465 C.ar      1 <0>         0.0013
     29 N6          3.2788  -12.6816    1.6706 N.pl3     1 <0>         0.0194
     30 O3          3.9444  -13.3700    2.4086 O.2       1 <0>        -0.1149
     31 O4          3.7120  -12.3614    0.5883 O.3       1 <0>        -0.1359
     32 H2         -0.9660    1.8677    0.0259 H         1 <0>         0.1647
     33 H3          1.1016    3.1794    0.0086 H         1 <0>         0.1700
     34 H4          3.2781    2.1171   -0.0190 H         1 <0>         0.1697
     35 H5          3.4229   -2.6045   -0.9410 H         1 <0>         0.1824
     36 H6          3.4412   -2.6149    0.8465 H         1 <0>         0.1817
     37 H7         -0.9245   -0.5589    0.0083 H         1 <0>         0.1669
     38 H8         -2.5302   -6.7071    0.8770 H         1 <0>         0.1528
     39 H9         -2.5403   -6.7031   -0.9029 H         1 <0>         0.1591
     40 H10        -0.2793  -10.8101   -1.1427 H         1 <0>         0.4952
     41 H11        -1.5655  -11.0682    3.2123 H         1 <0>         0.1622
     42 H12        -0.1977  -12.4699    4.7005 H         1 <0>         0.1788
     43 H13         2.0366  -13.2131    3.9874 H         1 <0>         0.1807
     44 H14         1.5575  -11.1674    0.2777 H         1 <0>         0.1698
     45 H15         4.4571   -0.4171   -0.0448 H         1 <0>         0.4619
     46 H16        -1.9788   -9.0930    2.0801 H         1 <0>         0.4778
@<TRIPOS>BOND
     1    1    9 ar
     2    1    2 ar
     3    1   32 1
     4    2    3 ar
     5    2   33 1
     6    3    4 ar
     7    3   34 1
     8    4    8 ar
     9    4    5 2
    10    5    6 1
    11    5   45 1
    12    6    7 1
    13    6   35 1
    14    6   36 1
    15    7    8 2
    16    7   10 1
    17    8    9 ar
    18    9   37 1
    19   10   14 1
    20   10   11 2
    21   11   12 1
    22   12   13 2
    23   13   14 1
    24   13   15 1
    25   15   16 1
    26   16   17 1
    27   16   38 1
    28   16   39 1
    29   17   18 1
    30   17   22 1
    31   17   19 1
    32   19   20 2
    33   19   46 1
    34   20   21 1
    35   20   23 1
    36   21   22 1
    37   21   40 1
    38   23   28 ar
    39   23   24 ar
    40   24   25 ar
    41   24   41 1
    42   25   26 ar
    43   25   42 1
    44   26   27 ar
    45   26   43 1
    46   27   28 ar
    47   27   29 1
    48   28   44 1
    49   29   30 2
    50   29   31 1
@<TRIPOS>MOLECULE
ZINC64653793
   54    57     0     0     0
SMALL
USER_CHARGES

@<TRIPOS>ATOM
      1 C1         -0.0173    1.4248    0.0099 C.3       1 <0>         0.0316
      2 O1          0.0021   -0.0041    0.0020 O.3       1 <0>        -0.4025
      3 C2          0.6518   -0.5703   -1.1379 C.3       1 <0>         0.0372
      4 C3          0.6131   -2.0967   -1.0411 C.3       1 <0>         0.1149
      5 N1         -0.7759   -2.5559   -1.1188 N.am      1 <0>        -0.6063
      6 C4         -1.5575   -2.6926    0.1104 C.3       1 <0>         0.4637
      7 H1         -1.1729   -2.0023    0.8612 H         1 <0>         0.1785
      8 N2         -2.9700   -2.3911   -0.1483 N.pl3     1 <0>        -0.7201
      9 C5         -3.5656   -2.9041   -1.2961 C.ar      1 <0>         0.1891
     10 C6         -4.9193   -3.1875   -1.3464 C.ar      1 <0>        -0.1150
     11 C7         -5.4735   -3.6901   -2.5230 C.ar      1 <0>        -0.0482
     12 C8         -4.6669   -3.9063   -3.6442 C.ar      1 <0>        -0.0974
     13 C9         -3.3184   -3.6289   -3.5958 C.ar      1 <0>        -0.0305
     14 C10        -2.7562   -3.1311   -2.4221 C.ar      1 <0>        -0.1801
     15 C11        -1.3130   -2.8398   -2.3221 C.2       1 <0>         0.5538
     16 O2         -0.6137   -2.8602   -3.3164 O.2       1 <0>        -0.4878
     17 C12        -6.9198   -3.9962   -2.5849 C.2       1 <0>         0.4968
     18 O3         -7.6221   -3.8094   -1.6120 O.2       1 <0>        -0.4867
     19 O4         -7.4573   -4.4818   -3.7203 O.3       1 <0>        -0.3429
     20 C13        -8.8600   -4.7547   -3.7091 C.3       1 <0>         0.0316
     21 S1         -1.4138   -4.3923    0.7276 S.3       1 <0>        -0.3027
     22 C14        -2.0767   -5.4068   -0.6222 C.3       1 <0>        -0.1401
     23 C15        -2.0138   -6.8839   -0.2283 C.3       1 <0>         0.2750
     24 N3         -0.6333   -7.2588    0.1029 N.pl3     1 <0>        -0.4645
     25 C16        -0.6233   -7.6566    1.3423 C.ar      1 <0>         0.3315
     26 C17         0.4438   -8.1468    2.2256 C.ar      1 <0>        -0.1380
     27 C18         0.1497   -8.4947    3.4943 C.ar      1 <0>         0.0344
     28 C19        -1.1513   -8.4098    4.0215 C.ar      1 <0>         0.0348
     29 C20        -2.2016   -7.9735    3.2979 C.ar      1 <0>        -0.1382
     30 C21        -2.0002   -7.5664    1.9004 C.ar      1 <0>         0.3315
     31 N4         -2.8083   -7.1163    0.9845 N.pl3     1 <0>        -0.4654
     32 H2          1.0053    1.8021    0.0021 H         1 <0>         0.0506
     33 H3         -0.5445    1.7859   -0.8732 H         1 <0>         0.0454
     34 H4         -0.5275    1.7763    0.9067 H         1 <0>         0.0922
     35 H5          0.1385   -0.2506   -2.0447 H         1 <0>         0.0588
     36 H6          1.6883   -0.2344   -1.1694 H         1 <0>         0.0758
     37 H7          1.1847   -2.5275   -1.8631 H         1 <0>         0.1173
     38 H8          1.0473   -2.4117   -0.0922 H         1 <0>         0.0986
     39 H9         -3.4794   -1.8442    0.4700 H         1 <0>         0.4327
     40 H10        -5.5422   -3.0207   -0.4801 H         1 <0>         0.1554
     41 H11        -5.1034   -4.2926   -4.5533 H         1 <0>         0.1582
     42 H12        -2.6990   -3.7974   -4.4643 H         1 <0>         0.1569
     43 H13        -9.1630   -5.1400   -4.6827 H         1 <0>         0.1140
     44 H14        -9.0798   -5.4959   -2.9406 H         1 <0>         0.0658
     45 H15        -9.4071   -3.8365   -3.4954 H         1 <0>         0.0698
     46 H16        -3.1123   -5.1255   -0.8134 H         1 <0>         0.1582
     47 H17        -1.4842   -5.2454   -1.5228 H         1 <0>         0.1545
     48 H18        -2.3856   -7.5044   -1.0437 H         1 <0>         0.2465
     49 H19         1.4570   -8.2282    1.8606 H         1 <0>         0.2060
     50 H20         0.9448   -8.8532    4.1312 H         1 <0>         0.2038
     51 H21        -1.3154   -8.7058    5.0471 H         1 <0>         0.2038
     52 H22        -3.1848   -7.9240    3.7422 H         1 <0>         0.2059
     53 H23         0.1310   -7.2179   -0.4929 H         1 <0>         0.4959
     54 H24        -3.7607   -6.9623    1.0849 H         1 <0>         0.4957
@<TRIPOS>BOND
     1    1    2 1
     2    1   32 1
     3    1   33 1
     4    1   34 1
     5    2    3 1
     6    3    4 1
     7    3   35 1
     8    3   36 1
     9    4    5 1
    10    4   37 1
    11    4   38 1
    12    5   15 am
    13    5    6 1
    14    6    7 1
    15    6    8 1
    16    6   21 1
    17    8    9 1
    18    8   39 1
    19    9   14 ar
    20    9   10 ar
    21   10   11 ar
    22   10   40 1
    23   11   12 ar
    24   11   17 1
    25   12   13 ar
    26   12   41 1
    27   13   14 ar
    28   13   42 1
    29   14   15 1
    30   15   16 2
    31   17   18 2
    32   17   19 1
    33   19   20 1
    34   20   43 1
    35   20   44 1
    36   20   45 1
    37   21   22 1
    38   22   23 1
    39   22   46 1
    40   22   47 1
    41   23   31 1
    42   23   24 1
    43   23   48 1
    44   24   25 2
    45   24   53 1
    46   25   30 ar
    47   25   26 ar
    48   26   27 ar
    49   26   49 1
    50   27   28 ar
    51   27   50 1
    52   28   29 ar
    53   28   51 1
    54   29   30 ar
    55   29   52 1
    56   30   31 2
    57   31   54 1
@<TRIPOS>MOLECULE
ZINC12871769
   71    73     0     0     0
SMALL
USER_CHARGES
N-[(1R)-1-[[4-[[(3R,5R)-3,5-dimethyl-1-piperidyl]methyl]thiazol-2-yl]carbamoyl]-2-methyl-propyl]-3,5-dimethoxy-benzamide
@<TRIPOS>ATOM
      1 C1         -2.4300    2.3932    0.3317 C.3       1 <0>        -0.1687
      2 C2         -0.9190    2.5493    0.5142 C.3       1 <0>        -0.1146
      3 H1         -0.6439    3.5973    0.3955 H         1 <0>         0.1156
      4 C3         -0.1876    1.7069   -0.5346 C.3       1 <0>        -0.1282
      5 C4         -0.5328    0.2302   -0.3229 C.3       1 <0>        -0.1131
      6 H2         -1.6031    0.0819   -0.4663 H         1 <0>         0.0948
      7 C5         -0.1462   -0.1800    1.0999 C.3       1 <0>         0.0005
      8 C6         -0.5213    2.0719    1.9127 C.3       1 <0>         0.0080
      9 C7         -0.6329    0.1979    3.4410 C.3       1 <0>         0.0814
     10 C8         -1.1855    1.2111    4.4101 C.2       1 <0>         0.0198
     11 C9         -2.4297    1.0678    4.9287 C.2       1 <0>        -0.2390
     12 S1         -2.5242    2.5171    5.9696 S.3       1 <0>         0.2347
     13 C10        -0.9451    3.1494    5.6205 C.2       1 <0>         0.2951
     14 N1         -0.4679    2.2546    4.7773 N.2       1 <0>        -0.5474
     15 N2         -0.3377    4.3006    6.1085 N.am      1 <0>        -0.6061
     16 C11        -0.9956    5.0927    6.9781 C.2       1 <0>         0.5235
     17 O1         -2.1491    4.8517    7.2649 O.2       1 <0>        -0.4814
     18 C12        -0.2979    6.2780    7.5940 C.3       1 <0>         0.1461
     19 H3          0.7602    6.0500    7.7231 H         1 <0>         0.1235
     20 C13        -0.4496    7.4927    6.6763 C.3       1 <0>        -0.1050
     21 C14         0.2877    7.2334    5.3609 C.3       1 <0>        -0.1584
     22 C15        -1.9332    7.7338    6.3904 C.3       1 <0>        -0.1541
     23 N3         -0.8964    6.5734    8.8982 N.am      1 <0>        -0.7145
     24 C16        -0.1763    7.2134    9.8407 C.2       1 <0>         0.5741
     25 O2          0.9698    7.5454    9.6087 O.2       1 <0>        -0.5171
     26 C17        -0.7804    7.5116   11.1570 C.ar      1 <0>        -0.0629
     27 C18        -2.0975    7.1365   11.4233 C.ar      1 <0>        -0.1580
     28 C19        -2.6575    7.4122   12.6598 C.ar      1 <0>         0.1643
     29 C20        -1.9146    8.0715   13.6284 C.ar      1 <0>        -0.2707
     30 C21        -0.6065    8.4513   13.3658 C.ar      1 <0>         0.1652
     31 C22        -0.0367    8.1739   12.1341 C.ar      1 <0>        -0.1252
     32 O3          0.1173    9.0961   14.3184 O.3       1 <0>        -0.3074
     33 C23        -0.5324    9.3500   15.5656 C.3       1 <0>         0.0235
     34 O4         -3.9385    7.0419   12.9224 O.3       1 <0>        -0.3104
     35 C24        -4.4547    7.3635   14.2156 C.3       1 <0>         0.0236
     36 C25         0.2407   -0.6245   -1.3289 C.3       1 <0>        -0.1511
     37 H4         -2.7042    1.3452    0.4523 H         1 <0>         0.0512
     38 H5         -2.9501    2.9931    1.0785 H         1 <0>         0.0701
     39 H6         -2.7122    2.7302   -0.6658 H         1 <0>         0.0845
     40 H7          0.8881    1.8482   -0.4298 H         1 <0>         0.0828
     41 H8         -0.5009    2.0148   -1.5322 H         1 <0>         0.0936
     42 H9         -0.4038   -1.2272    1.2586 H         1 <0>         0.1293
     43 H10         0.9265   -0.0449    1.2381 H         1 <0>         0.1316
     44 H11         0.5533    2.1962    2.0470 H         1 <0>         0.1319
     45 H12        -1.0514    2.6601    2.6617 H         1 <0>         0.1237
     46 H13        -1.1268   -0.7612    3.5970 H         1 <0>         0.1428
     47 H14         0.4389    0.0855    3.6048 H         1 <0>         0.1432
     48 H15        -3.1616    0.2918    4.7597 H         1 <0>         0.2068
     49 H16         0.5595    4.5338    5.8232 H         1 <0>         0.4329
     50 H17        -0.0260    8.3711    7.1632 H         1 <0>         0.1047
     51 H18        -0.0921    6.3187    4.9058 H         1 <0>         0.0487
     52 H19         0.1260    8.0710    4.6825 H         1 <0>         0.0752
     53 H20         1.3544    7.1257    5.5575 H         1 <0>         0.0686
     54 H21        -2.4584    7.9185    7.3275 H         1 <0>         0.0649
     55 H22        -2.0413    8.5992    5.7366 H         1 <0>         0.0674
     56 H23        -2.3568    6.8554    5.9035 H         1 <0>         0.0531
     57 H24        -1.8110    6.3085    9.0833 H         1 <0>         0.4140
     58 H25        -2.6782    6.6279   10.6680 H         1 <0>         0.1358
     59 H26        -2.3559    8.2892   14.5898 H         1 <0>         0.1423
     60 H27         0.9818    8.4697   11.9305 H         1 <0>         0.1493
     61 H28        -0.8346    8.4050   16.0169 H         1 <0>         0.0580
     62 H29         0.1546    9.8687   16.2342 H         1 <0>         0.1079
     63 H30        -1.4129    9.9701   15.3970 H         1 <0>         0.0584
     64 H31        -3.8472    6.8790   14.9800 H         1 <0>         0.0583
     65 H32        -4.4267    8.4435   14.3597 H         1 <0>         0.0587
     66 H33        -5.4839    7.0131   14.2934 H         1 <0>         0.1068
     67 H34        -0.0027   -1.6758   -1.1754 H         1 <0>         0.0684
     68 H35        -0.0350   -0.3319   -2.3420 H         1 <0>         0.0769
     69 H36         1.3109   -0.4747   -1.1859 H         1 <0>         0.0674
     70 N4         -0.9022    0.6510    2.0608 N.4       1 <0>        -0.3923
     71 H37        -1.9059    0.5535    1.8677 H         1 <0>         0.4226
@<TRIPOS>BOND
     1    1    2 1
     2    1   37 1
     3    1   38 1
     4    1   39 1
     5    2    3 1
     6    2    8 1
     7    2    4 1
     8    4    5 1
     9    4   40 1
    10    4   41 1
    11    5    6 1
    12    5    7 1
    13    5   36 1
    14    7   42 1
    15    7   43 1
    16    7   70 1
    17    8   44 1
    18    8   45 1
    19    8   70 1
    20    9   10 1
    21    9   46 1
    22    9   47 1
    23    9   70 1
    24   10   14 1
    25   10   11 2
    26   11   12 1
    27   11   48 1
    28   12   13 1
    29   13   14 2
    30   13   15 1
    31   15   16 am
    32   15   49 1
    33   16   17 2
    34   16   18 1
    35   18   19 1
    36   18   20 1
    37   18   23 1
    38   20   21 1
    39   20   22 1
    40   20   50 1
    41   21   51 1
    42   21   52 1
    43   21   53 1
    44   22   54 1
    45   22   55 1
    46   22   56 1
    47   23   24 am
    48   23   57 1
    49   24   25 2
    50   24   26 1
    51   26   31 ar
    52   26   27 ar
    53   27   28 ar
    54   27   58 1
    55   28   29 ar
    56   28   34 1
    57   29   30 ar
    58   29   59 1
    59   30   31 ar
    60   30   32 1
    61   31   60 1
    62   32   33 1
    63   33   61 1
    64   33   62 1
    65   33   63 1
    66   34   35 1
    67   35   64 1
    68   35   65 1
    69   35   66 1
    70   36   67 1
    71   36   68 1
    72   36   69 1
    73   70   71 1
@<TRIPOS>MOLECULE
ZINC34793280
   63    66     0     0     0
SMALL
USER_CHARGES

@<TRIPOS>ATOM
      1 C1         -0.0187    1.5258    0.0104 C.3       1 <0>        -0.1712
      2 C2          0.0021   -0.0041    0.0020 C.3       1 <0>         0.0987
      3 N1          0.7106   -0.4894    1.1889 N.am      1 <0>        -0.5237
      4 C3          2.0601   -0.6805    1.1019 C.2       1 <0>         0.1835
      5 C4          2.7725   -1.1248    2.1571 C.2       1 <0>        -0.2792
      6 C5          2.0241   -1.4053    3.4445 C.3       1 <0>         0.2538
      7 H1          2.4612   -0.7874    4.2289 H         1 <0>         0.1008
      8 N2          0.5708   -1.1676    3.4362 N.am      1 <0>        -0.7120
      9 C6          0.0004   -0.7162    2.3016 C.2       1 <0>         0.7109
     10 O1         -1.1980   -0.5129    2.2862 O.2       1 <0>        -0.5472
     11 C7          2.2562   -2.8483    3.8120 C.ar      1 <0>        -0.1002
     12 C8          1.3426   -3.8137    3.4319 C.ar      1 <0>        -0.0780
     13 C9          1.5547   -5.1372    3.7685 C.ar      1 <0>        -0.1095
     14 C10         2.6821   -5.4969    4.4859 C.ar      1 <0>        -0.0188
     15 C11         3.5966   -4.5315    4.8661 C.ar      1 <0>        -0.1063
     16 C12         3.3862   -3.2073    4.5247 C.ar      1 <0>         0.0051
     17 Cl1         4.5366   -1.9958    4.9962 Cl        1 <0>        -0.0234
     18 Cl2         2.9480   -7.1593    4.9092 Cl        1 <0>        -0.0553
     19 C13         4.1356   -1.2392    1.8154 C.2       1 <0>         0.5837
     20 O2          5.0065   -1.6181    2.5771 O.2       1 <0>        -0.5019
     21 N3          4.3484   -0.8755    0.5378 N.am      1 <0>        -0.6114
     22 C14         3.0473   -0.4885   -0.0275 C.3       1 <0>         0.1461
     23 C15         5.6365   -0.8662   -0.1601 C.3       1 <0>         0.1304
     24 C16         5.8611   -2.2035   -0.8177 C.2       1 <0>         0.4989
     25 O3          5.0274   -3.0781   -0.7136 O.2       1 <0>        -0.5078
     26 N4          6.9885   -2.4274   -1.5214 N.am      1 <0>        -0.7338
     27 C17         7.2070   -3.7274   -2.1607 C.3       1 <0>         0.0962
     28 C18         8.5522   -3.7177   -2.8895 C.3       1 <0>        -0.0216
     29 N5          8.7712   -5.0212   -3.5305 N.4       1 <0>        -0.3790
     30 C19         8.8864   -6.0589   -2.4988 C.3       1 <0>        -0.0152
     31 C20         9.0336   -7.4296   -3.1628 C.3       1 <0>        -0.1459
     32 C21        10.2909   -7.4349   -4.0371 C.3       1 <0>        -0.1400
     33 C22        10.1930   -6.3011   -5.0618 C.3       1 <0>        -0.1464
     34 C23        10.0029   -4.9722   -4.3274 C.3       1 <0>        -0.0057
     35 H2          1.0039    1.9031    0.0027 H         1 <0>         0.0576
     36 H3         -0.5459    1.8868   -0.8726 H         1 <0>         0.0803
     37 H4         -0.5289    1.8773    0.9072 H         1 <0>         0.0678
     38 H5         -1.0205   -0.3814    0.0098 H         1 <0>         0.1063
     39 H6          0.5123   -0.3556   -0.8948 H         1 <0>         0.0893
     40 H7          0.0370   -1.3288    4.2299 H         1 <0>         0.4378
     41 H8          0.4627   -3.5335    2.8719 H         1 <0>         0.1348
     42 H9          0.8403   -5.8909    3.4718 H         1 <0>         0.1404
     43 H10         4.4766   -4.8117    5.4261 H         1 <0>         0.1448
     44 H11         2.7920   -1.1338   -0.8680 H         1 <0>         0.1105
     45 H12         3.0656    0.5551   -0.3416 H         1 <0>         0.1143
     46 H13         5.6328   -0.0841   -0.9193 H         1 <0>         0.1196
     47 H14         6.4360   -0.6743    0.5554 H         1 <0>         0.1258
     48 H15         7.6553   -1.7279   -1.6047 H         1 <0>         0.4095
     49 H16         7.2107   -4.5095   -1.4015 H         1 <0>         0.0892
     50 H17         6.4074   -3.9193   -2.8762 H         1 <0>         0.0887
     51 H18         8.5485   -2.9356   -3.6487 H         1 <0>         0.1390
     52 H19         9.3517   -3.5258   -2.1740 H         1 <0>         0.1376
     53 H20         9.7613   -5.8597   -1.8799 H         1 <0>         0.1312
     54 H21         7.9923   -6.0518   -1.8754 H         1 <0>         0.1323
     55 H22         9.1208   -8.1985   -2.3952 H         1 <0>         0.1137
     56 H23         8.1591   -7.6300   -3.7818 H         1 <0>         0.0886
     57 H24        11.1707   -7.2855   -3.4112 H         1 <0>         0.0824
     58 H25        10.3697   -8.3899   -4.5566 H         1 <0>         0.0953
     59 H26        11.1089   -6.2633   -5.6515 H         1 <0>         0.1138
     60 H27         9.3425   -6.4780   -5.7202 H         1 <0>         0.0884
     61 H28         9.9329   -4.1627   -5.0540 H         1 <0>         0.1315
     62 H29        10.8539   -4.7961   -3.6695 H         1 <0>         0.1301
     63 H30         7.9903   -5.2341   -4.1329 H         1 <0>         0.4246
@<TRIPOS>BOND
     1    1    2 1
     2    1   35 1
     3    1   36 1
     4    1   37 1
     5    2    3 1
     6    2   38 1
     7    2   39 1
     8    3    9 am
     9    3    4 1
    10    4   22 1
    11    4    5 2
    12    5    6 1
    13    5   19 1
    14    6    7 1
    15    6    8 1
    16    6   11 1
    17    8    9 am
    18    8   40 1
    19    9   10 2
    20   11   16 ar
    21   11   12 ar
    22   12   13 ar
    23   12   41 1
    24   13   14 ar
    25   13   42 1
    26   14   15 ar
    27   14   18 1
    28   15   16 ar
    29   15   43 1
    30   16   17 1
    31   19   20 2
    32   19   21 am
    33   21   22 1
    34   21   23 1
    35   22   44 1
    36   22   45 1
    37   23   24 1
    38   23   46 1
    39   23   47 1
    40   24   25 2
    41   24   26 am
    42   26   27 1
    43   26   48 1
    44   27   28 1
    45   27   49 1
    46   27   50 1
    47   28   29 1
    48   28   51 1
    49   28   52 1
    50   29   34 1
    51   29   30 1
    52   29   63 1
    53   30   31 1
    54   30   53 1
    55   30   54 1
    56   31   32 1
    57   31   55 1
    58   31   56 1
    59   32   33 1
    60   32   57 1
    61   32   58 1
    62   33   34 1
    63   33   59 1
    64   33   60 1
    65   34   61 1
    66   34   62 1
@<TRIPOS>MOLECULE
ZINC39666069
   73    76     0     0     0
SMALL
USER_CHARGES

@<TRIPOS>ATOM
      1 C1          0.9564   -8.7732   -7.4263 C.3       1 <0>        -0.1170
      2 C2          0.6970   -8.7560   -5.9419 C.ar      1 <0>        -0.1145
      3 C3          1.1167   -7.6810   -5.1804 C.ar      1 <0>        -0.0771
      4 C4          0.8805   -7.6630   -3.8194 C.ar      1 <0>        -0.2040
      5 C5          0.2211   -8.7246   -3.2169 C.ar      1 <0>         0.1170
      6 C6         -0.1995   -9.8018   -3.9834 C.ar      1 <0>        -0.1501
      7 C7          0.0346   -9.8126   -5.3448 C.ar      1 <0>        -0.0818
      8 O1         -0.0121   -8.7095   -1.8782 O.3       1 <0>        -0.3142
      9 C8          0.5268   -7.6122   -1.1381 C.3       1 <0>         0.0700
     10 H1          0.4653   -6.7042   -1.7380 H         1 <0>         0.0835
     11 C9          1.9901   -7.8984   -0.7947 C.3       1 <0>        -0.1807
     12 C10        -0.2730   -7.4258    0.1528 C.3       1 <0>         0.1244
     13 N1         -1.6741   -7.1518   -0.1761 N.am      1 <0>        -0.7238
     14 C11        -2.5711   -6.9522    0.8098 C.2       1 <0>         0.5209
     15 O2         -2.2183   -6.9993    1.9692 O.2       1 <0>        -0.5195
     16 C12        -4.0123   -6.6703    0.4715 C.3       1 <0>        -0.1132
     17 H2         -4.0856   -6.1928   -0.5056 H         1 <0>         0.1119
     18 C13        -4.6548   -5.7771    1.5564 C.3       1 <0>         0.1185
     19 N2         -6.0391   -6.2885    1.6908 N.am      1 <0>        -0.6223
     20 C14        -5.9001   -7.7608    1.5863 C.3       1 <0>         0.0993
     21 C15        -4.8320   -7.9713    0.4946 C.3       1 <0>        -0.0711
     22 C16        -5.4985   -8.2001   -0.8586 C.3       1 <0>        -0.1375
     23 C17        -6.2611   -9.5277   -0.8286 C.3       1 <0>        -0.0111
     24 N3         -5.3301  -10.6220   -0.5278 N.4       1 <0>        -0.5051
     25 C18        -4.7632  -10.4428    0.8142 C.3       1 <0>        -0.0072
     26 C19        -3.9375   -9.1538    0.8539 C.3       1 <0>        -0.1491
     27 C20        -7.1694   -5.5760    1.8681 C.2       1 <0>         0.5394
     28 O3         -7.1112   -4.3739    2.0181 O.2       1 <0>        -0.4892
     29 C21        -8.5054   -6.2730    1.8800 C.3       1 <0>         0.0771
     30 H3         -8.5911   -6.9093    0.9991 H         1 <0>         0.0923
     31 C22        -8.6222   -7.1304    3.1418 C.3       1 <0>        -0.1824
     32 O4         -9.5510   -5.2990    1.8675 O.3       1 <0>        -0.2839
     33 C23       -10.7515   -5.6889    1.3639 C.ar      1 <0>         0.1241
     34 C24       -11.7730   -4.7634    1.2074 C.ar      1 <0>        -0.1436
     35 C25       -12.9923   -5.1622    0.6949 C.ar      1 <0>        -0.0740
     36 C26       -13.1952   -6.4827    0.3385 C.ar      1 <0>        -0.1519
     37 C27       -12.1789   -7.4071    0.4940 C.ar      1 <0>        -0.0814
     38 C28       -10.9557   -7.0121    1.0003 C.ar      1 <0>        -0.2159
     39 H4          0.1204   -8.3059   -7.9467 H         1 <0>         0.0712
     40 H5          1.8720   -8.2223   -7.6416 H         1 <0>         0.0685
     41 H6          1.0645   -9.8038   -7.7644 H         1 <0>         0.0681
     42 H7          1.6300   -6.8548   -5.6499 H         1 <0>         0.1275
     43 H8          1.2092   -6.8234   -3.2248 H         1 <0>         0.1298
     44 H9         -0.7130  -10.6294   -3.5167 H         1 <0>         0.1253
     45 H10        -0.2965  -10.6489   -5.9426 H         1 <0>         0.1298
     46 H11         2.5599   -8.0312   -1.7143 H         1 <0>         0.0721
     47 H12         2.4012   -7.0614   -0.2302 H         1 <0>         0.0799
     48 H13         2.0516   -8.8064   -0.1948 H         1 <0>         0.0732
     49 H14        -0.2115   -8.3338    0.7526 H         1 <0>         0.0840
     50 H15         0.1381   -6.5889    0.7173 H         1 <0>         0.0952
     51 H16        -1.9562   -7.1141   -1.1034 H         1 <0>         0.4034
     52 H17        -4.1185   -5.8797    2.4997 H         1 <0>         0.1007
     53 H18        -4.6639   -4.7357    1.2348 H         1 <0>         0.0977
     54 H19        -5.5637   -8.1794    2.5348 H         1 <0>         0.0927
     55 H20        -6.8454   -8.2117    1.2843 H         1 <0>         0.0839
     56 H21        -6.1933   -7.3858   -1.0643 H         1 <0>         0.1182
     57 H22        -4.7372   -8.2352   -1.6378 H         1 <0>         0.0999
     58 H23        -7.0328   -9.4858   -0.0600 H         1 <0>         0.1308
     59 H24        -6.7248   -9.7020   -1.7995 H         1 <0>         0.1412
     60 H25        -5.8227  -11.5016   -0.5687 H         1 <0>         0.4344
     61 H26        -5.5704  -10.3796    1.5439 H         1 <0>         0.1325
     62 H27        -4.1228  -11.2917    1.0542 H         1 <0>         0.1405
     63 H28        -3.1201   -9.2229    0.1362 H         1 <0>         0.1007
     64 H29        -3.5319   -9.0121    1.8556 H         1 <0>         0.1278
     65 H30        -8.6249   -6.4853    4.0204 H         1 <0>         0.0833
     66 H31        -9.5496   -7.7022    3.1080 H         1 <0>         0.0817
     67 H32        -7.7753   -7.8144    3.1959 H         1 <0>         0.0741
     68 H33       -11.6153   -3.7320    1.4863 H         1 <0>         0.1351
     69 H34       -13.7879   -4.4421    0.5728 H         1 <0>         0.1347
     70 H35       -14.1493   -6.7925   -0.0617 H         1 <0>         0.1279
     71 H36       -12.3399   -8.4380    0.2152 H         1 <0>         0.1253
     72 H37       -10.1607   -7.7336    1.1174 H         1 <0>         0.1221
     73 H38        -4.5852  -10.6248   -1.2084 H         1 <0>         0.4299
@<TRIPOS>BOND
     1    1    2 1
     2    1   39 1
     3    1   40 1
     4    1   41 1
     5    2    7 ar
     6    2    3 ar
     7    3    4 ar
     8    3   42 1
     9    4    5 ar
    10    4   43 1
    11    5    6 ar
    12    5    8 1
    13    6    7 ar
    14    6   44 1
    15    7   45 1
    16    8    9 1
    17    9   10 1
    18    9   11 1
    19    9   12 1
    20   11   46 1
    21   11   47 1
    22   11   48 1
    23   12   13 1
    24   12   49 1
    25   12   50 1
    26   13   14 am
    27   13   51 1
    28   14   15 2
    29   14   16 1
    30   16   17 1
    31   16   21 1
    32   16   18 1
    33   18   19 1
    34   18   52 1
    35   18   53 1
    36   19   20 1
    37   19   27 am
    38   20   21 1
    39   20   54 1
    40   20   55 1
    41   21   26 1
    42   21   22 1
    43   22   23 1
    44   22   56 1
    45   22   57 1
    46   23   24 1
    47   23   58 1
    48   23   59 1
    49   24   25 1
    50   24   60 1
    51   24   73 1
    52   25   26 1
    53   25   61 1
    54   25   62 1
    55   26   63 1
    56   26   64 1
    57   27   28 2
    58   27   29 1
    59   29   30 1
    60   29   31 1
    61   29   32 1
    62   31   65 1
    63   31   66 1
    64   31   67 1
    65   32   33 1
    66   33   38 ar
    67   33   34 ar
    68   34   35 ar
    69   34   68 1
    70   35   36 ar
    71   35   69 1
    72   36   37 ar
    73   36   70 1
    74   37   38 ar
    75   37   71 1
    76   38   72 1
@<TRIPOS>MOLECULE
ZINC63258975
   60    63     0     0     0
SMALL
USER_CHARGES

@<TRIPOS>ATOM
      1 C1         -0.0163    1.3482    0.0095 C.ar      1 <0>        -0.1482
      2 C2          1.1658    2.1014    0.0022 C.ar      1 <0>         0.0473
      3 C3          2.3912    1.5352   -0.0125 C.ar      1 <0>        -0.2053
      4 C4          2.5288    0.1198   -0.0218 C.ar      1 <0>         0.3360
      5 N1          3.5868   -0.6543   -0.0369 N.pl3     1 <0>        -0.5772
      6 C5          3.1432   -2.0528   -0.0408 C.3       1 <0>         0.0681
      7 C6          1.6315   -2.0084   -0.0255 C.2       1 <0>         0.0798
      8 C7          1.2951   -0.6984   -0.0144 C.ar      1 <0>        -0.1640
      9 C8          0.0021   -0.0041    0.0020 C.ar      1 <0>        -0.0181
     10 C9          0.6905   -3.1856   -0.0239 C.3       1 <0>        -0.1032
     11 C10         0.4565   -3.6534   -1.4617 C.3       1 <0>         0.1672
     12 H1          1.4151   -3.8639   -1.9359 H         1 <0>         0.1434
     13 C11        -0.3847   -4.9037   -1.4525 C.2       1 <0>         0.4635
     14 O1         -1.4548   -4.9160   -2.0135 O.2       1 <0>        -0.4784
     15 O2          0.0547   -6.0036   -0.8211 O.3       1 <0>        -0.3190
     16 C12        -0.7943   -7.1527   -0.8527 C.3       1 <0>         0.0469
     17 C13        -0.1406   -8.2812   -0.0977 C.2       1 <0>         0.5172
     18 O3          0.9454   -8.1177    0.4169 O.2       1 <0>        -0.5155
     19 N2         -0.7628   -9.4723    0.0058 N.am      1 <0>        -0.7194
     20 C14        -0.1273  -10.5694    0.7398 C.3       1 <0>         0.1647
     21 C15        -1.0226  -11.7811    0.7064 C.ar      1 <0>        -0.1156
     22 C16        -1.9697  -11.9679    1.6960 C.ar      1 <0>        -0.0859
     23 C17        -2.7911  -13.0791    1.6659 C.ar      1 <0>        -0.1114
     24 C18        -2.6654  -14.0044    0.6452 C.ar      1 <0>        -0.0235
     25 C19        -1.7175  -13.8169   -0.3450 C.ar      1 <0>        -0.1111
     26 C20        -0.9004  -12.7025   -0.3169 C.ar      1 <0>        -0.0857
     27 Cl1        -3.6965  -15.4006    0.6070 Cl        1 <0>        -0.0587
     28 N3         -0.2382   -2.6029   -2.2101 N.am      1 <0>        -0.7186
     29 C21         0.4654   -1.6077   -2.7854 C.2       1 <0>         0.5798
     30 O4          1.6765   -1.5817   -2.6833 O.2       1 <0>        -0.5397
     31 C22        -0.2351   -0.5484   -3.5401 C.ar      1 <0>        -0.1631
     32 C23        -1.6267   -0.5727   -3.6541 C.ar      1 <0>        -0.0517
     33 C24        -2.2753    0.4182   -4.3594 C.ar      1 <0>        -0.1575
     34 C25        -1.5485    1.4375   -4.9555 C.ar      1 <0>         0.1432
     35 C26        -0.1666    1.4664   -4.8454 C.ar      1 <0>        -0.1611
     36 C27         0.4915    0.4840   -4.1372 C.ar      1 <0>        -0.0242
     37 F1         -2.1891    2.4057   -5.6464 F         1 <0>        -0.1244
     38 H2         -0.9665    1.8612    0.0259 H         1 <0>         0.1542
     39 H3          1.0933    3.1789    0.0083 H         1 <0>         0.1581
     40 H4          3.2717    2.1606   -0.0175 H         1 <0>         0.1586
     41 H5          3.4952   -2.5561   -0.9413 H         1 <0>         0.1772
     42 H6          3.5129   -2.5667    0.8465 H         1 <0>         0.1715
     43 H7         -0.9210   -0.5647    0.0081 H         1 <0>         0.1533
     44 H8          1.1268   -3.9987    0.5563 H         1 <0>         0.1403
     45 H9         -0.2596   -2.8905    0.4214 H         1 <0>         0.1193
     46 H10        -1.7504   -6.9108   -0.3886 H         1 <0>         0.1082
     47 H11        -0.9586   -7.4547   -1.8871 H         1 <0>         0.1080
     48 H12        -1.6314   -9.6031   -0.4058 H         1 <0>         0.4067
     49 H13         0.8288  -10.8112    0.2757 H         1 <0>         0.0844
     50 H14         0.0369  -10.2674    1.7741 H         1 <0>         0.0843
     51 H15        -2.0674  -11.2456    2.4930 H         1 <0>         0.1349
     52 H16        -3.5307  -13.2251    2.4393 H         1 <0>         0.1384
     53 H17        -1.6187  -14.5391   -1.1419 H         1 <0>         0.1386
     54 H18        -0.1636  -12.5536   -1.0924 H         1 <0>         0.1352
     55 H19        -1.2045   -2.6236   -2.2916 H         1 <0>         0.4186
     56 H20        -2.1937   -1.3665   -3.1907 H         1 <0>         0.1381
     57 H21        -3.3515    0.4004   -4.4482 H         1 <0>         0.1493
     58 H22         0.3947    2.2624   -5.3119 H         1 <0>         0.1481
     59 H23         1.5675    0.5101   -4.0480 H         1 <0>         0.1437
     60 H24         4.5087   -0.3528   -0.0446 H         1 <0>         0.4543
@<TRIPOS>BOND
     1    1    9 ar
     2    1    2 ar
     3    1   38 1
     4    2    3 ar
     5    2   39 1
     6    3    4 ar
     7    3   40 1
     8    4    8 ar
     9    4    5 2
    10    5    6 1
    11    5   60 1
    12    6    7 1
    13    6   41 1
    14    6   42 1
    15    7    8 2
    16    7   10 1
    17    8    9 ar
    18    9   43 1
    19   10   11 1
    20   10   44 1
    21   10   45 1
    22   11   12 1
    23   11   13 1
    24   11   28 1
    25   13   14 2
    26   13   15 1
    27   15   16 1
    28   16   17 1
    29   16   46 1
    30   16   47 1
    31   17   18 2
    32   17   19 am
    33   19   20 1
    34   19   48 1
    35   20   21 1
    36   20   49 1
    37   20   50 1
    38   21   26 ar
    39   21   22 ar
    40   22   23 ar
    41   22   51 1
    42   23   24 ar
    43   23   52 1
    44   24   25 ar
    45   24   27 1
    46   25   26 ar
    47   25   53 1
    48   26   54 1
    49   28   29 am
    50   28   55 1
    51   29   30 2
    52   29   31 1
    53   31   36 ar
    54   31   32 ar
    55   32   33 ar
    56   32   56 1
    57   33   34 ar
    58   33   57 1
    59   34   35 ar
    60   34   37 1
    61   35   36 ar
    62   35   58 1
    63   36   59 1
@<TRIPOS>MOLECULE
ZINC64703812
   78    81     0     0     0
SMALL
USER_CHARGES

@<TRIPOS>ATOM
      1 C1         -1.2192    1.2261    0.4058 C.3       1 <0>        -0.1473
      2 C2         -1.2566   -0.3029    0.3653 C.3       1 <0>        -0.0872
      3 C3         -2.6891   -0.7698    0.3362 C.ar      1 <0>        -0.0824
      4 C4         -3.3598   -1.0091    1.5224 C.ar      1 <0>        -0.1120
      5 C5         -4.6716   -1.4363    1.5025 C.ar      1 <0>        -0.0925
      6 C6         -5.3217   -1.6267    0.2828 C.ar      1 <0>         0.0129
      7 C7         -4.6398   -1.3836   -0.9099 C.ar      1 <0>        -0.1209
      8 C8         -3.3299   -0.9517   -0.8765 C.ar      1 <0>        -0.1101
      9 C9         -6.7292   -2.0854    0.2543 C.2       1 <0>        -0.0248
     10 C10        -7.6754   -1.7182   -0.6556 C.2       1 <0>         0.3732
     11 N1         -8.8522   -2.3726   -0.3237 N.pl3     1 <0>        -0.3387
     12 C11        -8.5510   -3.1156    0.7905 C.2       1 <0>         0.1235
     13 N2         -7.3068   -2.9522    1.1269 N.2       1 <0>        -0.3769
     14 S1        -10.0982   -3.9154    1.1471 S.3       1 <0>         0.0850
     15 C12       -11.0426   -3.2172   -0.1980 C.2       1 <0>         0.3712
     16 N3        -10.1591   -2.4633   -0.7929 N.2       1 <0>        -0.3211
     17 N4        -12.3728   -3.4238   -0.5265 N.pl3     1 <0>        -0.5386
     18 C13       -12.9552   -2.7433   -1.6857 C.3       1 <0>         0.0983
     19 C14       -13.1967   -4.3227    0.2855 C.3       1 <0>         0.1072
     20 C15       -13.8535   -3.5393    1.3927 C.2       1 <0>         0.4901
     21 O1        -13.6530   -2.3475    1.4937 O.2       1 <0>        -0.5061
     22 N5        -14.6636   -4.1632    2.2708 N.am      1 <0>        -0.7341
     23 C16       -15.3020   -3.4016    3.3472 C.3       1 <0>         0.1226
     24 C17       -16.1625   -4.3405    4.1951 C.3       1 <0>        -0.1583
     25 C18       -16.9135   -3.5284    5.2523 C.3       1 <0>         0.0332
     26 H1        -16.2020   -2.9406    5.8321 H         1 <0>         0.1402
     27 C19       -17.9081   -2.5914    4.5640 C.3       1 <0>        -0.1868
     28 N6        -17.6387   -4.4408    6.1466 N.4       1 <0>        -0.3923
     29 C20       -16.6881   -5.3662    6.8145 C.3       1 <0>        -0.0082
     30 C21       -17.4681   -5.8298    8.0705 C.3       1 <0>        -0.1453
     31 C22       -18.2220   -4.5506    8.5009 C.3       1 <0>        -0.1453
     32 C23       -18.2904   -3.6784    7.2336 C.3       1 <0>        -0.0083
     33 N7         -7.4928   -0.8409   -1.7280 N.pl3     1 <0>        -0.7127
     34 C24        -8.5644   -0.6496   -2.7085 C.3       1 <0>         0.1759
     35 C25        -9.7759   -0.0149   -2.0226 C.3       1 <0>        -0.1660
     36 C26        -8.0728    0.2696   -3.8285 C.3       1 <0>        -0.1549
     37 C27        -8.9637   -2.0037   -3.2984 C.3       1 <0>        -0.1702
     38 H2         -0.1830    1.5638    0.4268 H         1 <0>         0.0586
     39 H3         -1.7135    1.6253   -0.4799 H         1 <0>         0.0553
     40 H4         -1.7344    1.5786    1.2994 H         1 <0>         0.0555
     41 H5         -0.7413   -0.6554   -0.5283 H         1 <0>         0.0721
     42 H6         -0.7622   -0.7020    1.2509 H         1 <0>         0.0723
     43 H7         -2.8554   -0.8617    2.4659 H         1 <0>         0.1236
     44 H8         -5.1939   -1.6231    2.4291 H         1 <0>         0.1258
     45 H9         -5.1376   -1.5292   -1.8572 H         1 <0>         0.1205
     46 H10        -2.8024   -0.7589   -1.7990 H         1 <0>         0.1238
     47 H11       -12.8289   -3.3641   -2.5727 H         1 <0>         0.0689
     48 H12       -14.0172   -2.5716   -1.5105 H         1 <0>         0.0796
     49 H13       -12.4527   -1.7878   -1.8364 H         1 <0>         0.0839
     50 H14       -13.9632   -4.7784   -0.3413 H         1 <0>         0.1327
     51 H15       -12.5681   -5.1025    0.7155 H         1 <0>         0.1141
     52 H16       -14.8239   -5.1164    2.1900 H         1 <0>         0.4051
     53 H17       -14.5355   -2.9460    3.9740 H         1 <0>         0.0792
     54 H18       -15.9306   -2.6218    2.9171 H         1 <0>         0.0809
     55 H19       -16.8794   -4.8541    3.5545 H         1 <0>         0.0965
     56 H20       -15.5237   -5.0741    4.6867 H         1 <0>         0.0958
     57 H21       -18.6197   -3.1792    3.9842 H         1 <0>         0.0827
     58 H22       -18.4431   -2.0129    5.3171 H         1 <0>         0.0843
     59 H23       -17.3700   -1.9144    3.9004 H         1 <0>         0.1078
     60 H24       -16.4592   -6.2143    6.1691 H         1 <0>         0.1352
     61 H25       -15.7764   -4.8414    7.0998 H         1 <0>         0.1344
     62 H26       -18.1699   -6.6244    7.8172 H         1 <0>         0.0982
     63 H27       -16.7818   -6.1546    8.8526 H         1 <0>         0.1172
     64 H28       -19.2263   -4.8004    8.8429 H         1 <0>         0.1055
     65 H29       -17.6716   -4.0334    9.2868 H         1 <0>         0.1042
     66 H30       -17.7599   -2.7407    7.3991 H         1 <0>         0.1307
     67 H31       -19.3305   -3.4792    6.9756 H         1 <0>         0.1321
     68 H32        -6.6566   -0.3587   -1.8233 H         1 <0>         0.4174
     69 H33        -9.5425    1.0151   -1.7530 H         1 <0>         0.0496
     70 H34       -10.6271   -0.0284   -2.7033 H         1 <0>         0.0604
     71 H35       -10.0211   -0.5793   -1.1229 H         1 <0>         0.0809
     72 H36        -7.2098   -0.1826   -4.3171 H         1 <0>         0.0638
     73 H37        -8.8701    0.4119   -4.5580 H         1 <0>         0.0751
     74 H38        -7.7884    1.2343   -3.4082 H         1 <0>         0.0630
     75 H39        -9.3603   -2.6414   -2.5084 H         1 <0>         0.0820
     76 H40        -9.7260   -1.8562   -4.0634 H         1 <0>         0.0624
     77 H41        -8.0892   -2.4781   -3.7436 H         1 <0>         0.0518
     78 H42       -18.3276   -4.9636    5.6268 H         1 <0>         0.4251
@<TRIPOS>BOND
     1    1    2 1
     2    1   38 1
     3    1   39 1
     4    1   40 1
     5    2    3 1
     6    2   41 1
     7    2   42 1
     8    3    8 ar
     9    3    4 ar
    10    4    5 ar
    11    4   43 1
    12    5    6 ar
    13    5   44 1
    14    6    7 ar
    15    6    9 1
    16    7    8 ar
    17    7   45 1
    18    8   46 1
    19    9   13 1
    20    9   10 2
    21   10   11 1
    22   10   33 1
    23   11   16 1
    24   11   12 1
    25   12   13 2
    26   12   14 1
    27   14   15 1
    28   15   16 2
    29   15   17 1
    30   17   18 1
    31   17   19 1
    32   18   47 1
    33   18   48 1
    34   18   49 1
    35   19   20 1
    36   19   50 1
    37   19   51 1
    38   20   21 2
    39   20   22 am
    40   22   23 1
    41   22   52 1
    42   23   24 1
    43   23   53 1
    44   23   54 1
    45   24   25 1
    46   24   55 1
    47   24   56 1
    48   25   26 1
    49   25   27 1
    50   25   28 1
    51   27   57 1
    52   27   58 1
    53   27   59 1
    54   28   32 1
    55   28   29 1
    56   28   78 1
    57   29   30 1
    58   29   60 1
    59   29   61 1
    60   30   31 1
    61   30   62 1
    62   30   63 1
    63   31   32 1
    64   31   64 1
    65   31   65 1
    66   32   66 1
    67   32   67 1
    68   33   34 1
    69   33   68 1
    70   34   35 1
    71   34   36 1
    72   34   37 1
    73   35   69 1
    74   35   70 1
    75   35   71 1
    76   36   72 1
    77   36   73 1
    78   36   74 1
    79   37   75 1
    80   37   76 1
    81   37   77 1
@<TRIPOS>MOLECULE
ZINC38971370
   53    56     0     0     0
SMALL
USER_CHARGES

@<TRIPOS>ATOM
      1 C1          3.9277    2.5495   -5.7760 C.3       1 <0>        -0.1550
      2 C2          4.1031    1.0811   -6.1684 C.3       1 <0>         0.0615
      3 O1          3.4305    0.2508   -5.2195 O.3       1 <0>        -0.3425
      4 C3          3.4883   -1.0797   -5.4216 C.2       1 <0>         0.5080
      5 O2          4.0931   -1.5232   -6.3772 O.2       1 <0>        -0.5042
      6 C4          2.8162   -1.9997   -4.4811 C.ar      1 <0>        -0.0758
      7 C5          2.1154   -1.4922   -3.3847 C.ar      1 <0>        -0.0833
      8 C6          1.4886   -2.3535   -2.5079 C.ar      1 <0>        -0.0793
      9 C7          1.5512   -3.7198   -2.7098 C.ar      1 <0>        -0.1208
     10 C8          2.2460   -4.2353   -3.7977 C.ar      1 <0>         0.1679
     11 C9          2.8746   -3.3781   -4.6881 C.ar      1 <0>        -0.1300
     12 N1          2.3061   -5.6168   -3.9971 N.pl3     1 <0>        -0.7180
     13 C10         2.8823   -6.1541   -5.2322 C.3       1 <0>         0.3083
     14 H1          2.9888   -5.3260   -5.9329 H         1 <0>         0.1903
     15 C11         1.8877   -7.1301   -5.8190 C.2       1 <0>         0.4432
     16 N2          0.6816   -6.7447   -6.1156 N.2       1 <0>        -0.8286
     17 S1         -0.3980   -7.8238   -6.7577 S.o2      1 <0>         2.6302
     18 O3          0.0987   -8.1809   -8.0403 O.2       1 <0>        -0.9275
     19 O4         -0.6592   -8.7875   -5.7466 O.2       1 <0>        -0.9272
     20 C12        -1.9067   -6.9541   -7.0262 C.ar      1 <0>        -0.6461
     21 C13        -2.8605   -6.8998   -6.0267 C.ar      1 <0>        -0.0130
     22 C14        -4.0442   -6.2177   -6.2365 C.ar      1 <0>        -0.1198
     23 C15        -4.2754   -5.5898   -7.4462 C.ar      1 <0>        -0.0414
     24 C16        -3.3215   -5.6437   -8.4465 C.ar      1 <0>        -0.0547
     25 C17        -2.1340   -6.3216   -8.2337 C.ar      1 <0>        -0.0088
     26 Cl1        -3.6110   -4.8554   -9.9659 Cl        1 <0>        -0.0420
     27 N3          2.2681   -8.4003   -6.0297 N.2       1 <0>        -0.4564
     28 C18         3.4833   -8.8145   -5.7382 C.ar      1 <0>         0.2895
     29 C19         3.8508  -10.1636   -5.9741 C.ar      1 <0>        -0.0846
     30 C20         5.0961  -10.5942   -5.6765 C.ar      1 <0>        -0.0624
     31 C21         6.0798   -9.7542   -5.1288 C.ar      1 <0>         0.0532
     32 C22         5.8351   -8.4520   -4.8643 C.ar      1 <0>        -0.2028
     33 C23         4.5028   -7.9047   -5.1602 C.ar      1 <0>         0.3330
     34 N4          4.2304   -6.6533   -4.9188 N.pl3     1 <0>        -0.5128
     35 H2          2.8665    2.7980   -5.7636 H         1 <0>         0.0695
     36 H3          4.3509    2.7138   -4.7851 H         1 <0>         0.0693
     37 H4          4.4407    3.1827   -6.4998 H         1 <0>         0.0852
     38 H5          3.6798    0.9167   -7.1593 H         1 <0>         0.0718
     39 H6          5.1643    0.8326   -6.1808 H         1 <0>         0.0715
     40 H7          2.0644   -0.4256   -3.2232 H         1 <0>         0.1484
     41 H8          0.9475   -1.9590   -1.6606 H         1 <0>         0.1465
     42 H9          1.0588   -4.3889   -2.0197 H         1 <0>         0.1388
     43 H10         3.4109   -3.7764   -5.5368 H         1 <0>         0.1318
     44 H11         1.9664   -6.2202   -3.3178 H         1 <0>         0.4209
     45 H12        -2.6807   -7.3908   -5.0817 H         1 <0>         0.1487
     46 H13        -4.7889   -6.1757   -5.4554 H         1 <0>         0.1521
     47 H14        -5.2006   -5.0575   -7.6103 H         1 <0>         0.1516
     48 H15        -1.3871   -6.3603   -9.0127 H         1 <0>         0.1523
     49 H16         3.1310  -10.8508   -6.3937 H         1 <0>         0.1888
     50 H17         5.3458  -11.6275   -5.8673 H         1 <0>         0.1784
     51 H18         7.0572  -10.1599   -4.9131 H         1 <0>         0.1820
     52 H19         6.6053   -7.8234   -4.4424 H         1 <0>         0.1860
     53 H20         4.9020   -6.0642   -4.5411 H         1 <0>         0.4582
@<TRIPOS>BOND
     1    1    2 1
     2    1   35 1
     3    1   36 1
     4    1   37 1
     5    2    3 1
     6    2   38 1
     7    2   39 1
     8    3    4 1
     9    4    5 2
    10    4    6 1
    11    6   11 ar
    12    6    7 ar
    13    7    8 ar
    14    7   40 1
    15    8    9 ar
    16    8   41 1
    17    9   10 ar
    18    9   42 1
    19   10   11 ar
    20   10   12 1
    21   11   43 1
    22   12   13 1
    23   12   44 1
    24   13   14 1
    25   13   34 1
    26   13   15 1
    27   15   16 2
    28   15   27 1
    29   16   17 1
    30   17   18 2
    31   17   19 2
    32   17   20 1
    33   20   25 ar
    34   20   21 ar
    35   21   22 ar
    36   21   45 1
    37   22   23 ar
    38   22   46 1
    39   23   24 ar
    40   23   47 1
    41   24   25 ar
    42   24   26 1
    43   25   48 1
    44   27   28 2
    45   28   33 ar
    46   28   29 ar
    47   29   30 ar
    48   29   49 1
    49   30   31 ar
    50   30   50 1
    51   31   32 ar
    52   31   51 1
    53   32   33 ar
    54   32   52 1
    55   33   34 2
    56   34   53 1
@<TRIPOS>MOLECULE
ZINC39670475
   70    74     0     0     0
SMALL
USER_CHARGES

@<TRIPOS>ATOM
      1 C1         -4.6397  -11.4433   -2.2531 C.3       1 <0>        -0.1283
      2 C2         -3.9630  -11.2703   -0.9178 C.2       1 <0>        -0.0640
      3 C3         -3.9249  -12.3410   -0.0093 C.2       1 <0>        -0.0066
      4 C4         -3.3129  -12.1815    1.1950 C.2       1 <0>        -0.1260
      5 C5         -2.7254  -10.9402    1.5117 C.cat     1 <0>         0.3067
      6 N1         -2.0777  -10.5069    2.5840 N.pl3     1 <0>        -0.5060
      7 C6         -1.7145   -9.2364    2.3929 C.2       1 <0>         0.0603
      8 C7         -2.1384   -8.8455    1.1711 C.2       1 <0>         0.0107
      9 N2         -2.7787   -9.9138    0.6045 N.pl3     1 <0>        -0.3231
     10 C8         -3.3915  -10.0891   -0.6024 C.2       1 <0>         0.0756
     11 C9         -0.9580   -8.3809    3.3762 C.3       1 <0>         0.1794
     12 N3          0.4798   -8.6176    3.2243 N.am      1 <0>        -0.7392
     13 C10         1.3577   -7.9571    4.0050 C.2       1 <0>         0.5223
     14 O1          0.9574   -7.1667    4.8333 O.2       1 <0>        -0.4979
     15 C11         2.8366   -8.2006    3.8487 C.3       1 <0>        -0.1129
     16 H1          3.0682   -8.4787    2.8205 H         1 <0>         0.1224
     17 C12         3.6352   -6.9429    4.2587 C.3       1 <0>         0.1100
     18 N4          3.9995   -7.1764    5.6760 N.am      1 <0>        -0.6192
     19 C13         4.3387   -8.6184    5.7368 C.3       1 <0>         0.1076
     20 C14         3.3039   -9.2988    4.8187 C.3       1 <0>        -0.0749
     21 C15         3.9539  -10.4435    4.0474 C.3       1 <0>        -0.1319
     22 C16         4.3574  -11.5489    5.0272 C.3       1 <0>        -0.0127
     23 N5          3.1694  -12.0277    5.7441 N.4       1 <0>        -0.5042
     24 C17         2.6043  -10.9437    6.5568 C.3       1 <0>        -0.0113
     25 C18         2.1266   -9.8127    5.6417 C.3       1 <0>        -0.1445
     26 C19         4.0187   -6.2801    6.6824 C.2       1 <0>         0.5519
     27 O2          4.3430   -6.6279    7.7981 O.2       1 <0>        -0.4998
     28 C20         3.6372   -4.8458    6.4214 C.3       1 <0>         0.0742
     29 H2          2.6466   -4.8100    5.9681 H         1 <0>         0.1024
     30 C21         4.6557   -4.2118    5.4718 C.3       1 <0>        -0.1817
     31 O3          3.6229   -4.1246    7.6550 O.3       1 <0>        -0.2869
     32 C22         2.8315   -3.0215    7.7156 C.ar      1 <0>         0.1222
     33 C23         2.1676   -2.5794    6.5805 C.ar      1 <0>        -0.2117
     34 C24         1.3633   -1.4580    6.6448 C.ar      1 <0>        -0.0805
     35 C25         1.2202   -0.7761    7.8391 C.ar      1 <0>        -0.1506
     36 C26         1.8812   -1.2144    8.9717 C.ar      1 <0>        -0.0756
     37 C27         2.6817   -2.3388    8.9140 C.ar      1 <0>        -0.1444
     38 H3         -3.9157  -11.8053   -2.9831 H         1 <0>         0.1003
     39 H4         -5.4516  -12.1644   -2.1583 H         1 <0>         0.0964
     40 H5         -5.0412  -10.4854   -2.5838 H         1 <0>         0.0910
     41 H6         -4.3797  -13.2864   -0.2656 H         1 <0>         0.1795
     42 H7         -3.2778  -12.9976    1.9014 H         1 <0>         0.1815
     43 H8         -1.9984   -7.8719    0.7252 H         1 <0>         0.2301
     44 H9         -3.4230   -9.2737   -1.3098 H         1 <0>         0.2039
     45 H10        -1.1752   -7.3299    3.1859 H         1 <0>         0.1226
     46 H11        -1.2632   -8.6371    4.3908 H         1 <0>         0.1051
     47 H12         0.7999   -9.2497    2.5619 H         1 <0>         0.4040
     48 H13         4.5320   -6.8460    3.6468 H         1 <0>         0.0986
     49 H14         3.0139   -6.0519    4.1678 H         1 <0>         0.0992
     50 H15         5.3481   -8.7879    5.3620 H         1 <0>         0.0905
     51 H16         4.2438   -8.9888    6.7575 H         1 <0>         0.0918
     52 H17         3.2452  -10.8417    3.3214 H         1 <0>         0.0936
     53 H18         4.8394  -10.0761    3.5286 H         1 <0>         0.1257
     54 H19         4.8071  -12.3754    4.4770 H         1 <0>         0.1432
     55 H20         5.0788  -11.1543    5.7428 H         1 <0>         0.1371
     56 H21         2.4797  -12.3412    5.0777 H         1 <0>         0.4230
     57 H22         1.7617  -11.3241    7.1342 H         1 <0>         0.1396
     58 H23         3.3674  -10.5635    7.2360 H         1 <0>         0.1389
     59 H24         1.7237   -9.0006    6.2469 H         1 <0>         0.1240
     60 H25         1.3518  -10.1882    4.9733 H         1 <0>         0.0872
     61 H26         5.6464   -4.2476    5.9251 H         1 <0>         0.0792
     62 H27         4.6667   -4.7619    4.5309 H         1 <0>         0.0752
     63 H28         4.3798   -3.1743    5.2830 H         1 <0>         0.0838
     64 H29         2.2796   -3.1113    5.6473 H         1 <0>         0.1240
     65 H30         0.8463   -1.1135    5.7615 H         1 <0>         0.1262
     66 H31         0.5913    0.1005    7.8873 H         1 <0>         0.1283
     67 H32         1.7680   -0.6798    9.9032 H         1 <0>         0.1347
     68 H33         3.1942   -2.6833    9.8000 H         1 <0>         0.1336
     69 H34         3.4274  -12.7967    6.3441 H         1 <0>         0.4381
     70 H35        -1.8965  -11.0296    3.3807 H         1 <0>         0.4582
@<TRIPOS>BOND
     1    1    2 1
     2    1   38 1
     3    1   39 1
     4    1   40 1
     5    2   10 2
     6    2    3 1
     7    3    4 2
     8    3   41 1
     9    4    5 1
    10    4   42 1
    11    5    9 1
    12    5    6 2
    13    6    7 1
    14    6   70 1
    15    7    8 2
    16    7   11 1
    17    8    9 1
    18    8   43 1
    19    9   10 1
    20   10   44 1
    21   11   12 1
    22   11   45 1
    23   11   46 1
    24   12   13 am
    25   12   47 1
    26   13   14 2
    27   13   15 1
    28   15   16 1
    29   15   20 1
    30   15   17 1
    31   17   18 1
    32   17   48 1
    33   17   49 1
    34   18   19 1
    35   18   26 am
    36   19   20 1
    37   19   50 1
    38   19   51 1
    39   20   25 1
    40   20   21 1
    41   21   22 1
    42   21   52 1
    43   21   53 1
    44   22   23 1
    45   22   54 1
    46   22   55 1
    47   23   24 1
    48   23   56 1
    49   23   69 1
    50   24   25 1
    51   24   57 1
    52   24   58 1
    53   25   59 1
    54   25   60 1
    55   26   27 2
    56   26   28 1
    57   28   29 1
    58   28   30 1
    59   28   31 1
    60   30   61 1
    61   30   62 1
    62   30   63 1
    63   31   32 1
    64   32   37 ar
    65   32   33 ar
    66   33   34 ar
    67   33   64 1
    68   34   35 ar
    69   34   65 1
    70   35   36 ar
    71   35   66 1
    72   36   37 ar
    73   36   67 1
    74   37   68 1
@<TRIPOS>MOLECULE
ZINC39711064
   73    77     0     0     0
SMALL
USER_CHARGES

@<TRIPOS>ATOM
      1 C1          2.0622   -0.3101   -1.8351 C.3       1 <0>        -0.1368
      2 C2          1.8669   -1.7535   -1.4486 C.ar      1 <0>        -0.1045
      3 C3          2.0743   -2.7500   -2.4028 C.ar      1 <0>         0.1165
      4 C4          1.9182   -4.0714   -2.1284 C.ar      1 <0>        -0.1697
      5 C5          1.5329   -4.4932   -0.8426 C.ar      1 <0>         0.3346
      6 N1          1.3833   -5.7924   -0.5847 N.am      1 <0>        -0.5890
      7 C6          1.0232   -6.2565    0.6002 C.2       1 <0>         0.5200
      8 O1          0.9027   -7.4543    0.7758 O.2       1 <0>        -0.4402
      9 C7          0.7624   -5.2928    1.7358 C.3       1 <0>        -0.1614
     10 H1         -0.2592   -5.4515    2.0810 H         1 <0>         0.1969
     11 C8          0.9317   -3.8140    1.4477 C.2       1 <0>         0.1019
     12 C9          1.3069   -3.4622    0.1851 C.ar      1 <0>        -0.1400
     13 C10         1.4981   -2.0574   -0.1774 C.ar      1 <0>         0.0032
     14 C11         1.7034   -5.6570    2.8859 C.3       1 <0>        -0.0150
     15 H2          1.6353   -4.8979    3.6652 H         1 <0>         0.1846
     16 C12         3.1407   -5.7271    2.3663 C.3       1 <0>         0.3097
     17 H3          3.3229   -4.9418    1.6326 H         1 <0>         0.1224
     18 N2          3.4235   -7.0554    1.7904 N.pl3     1 <0>        -0.6832
     19 N3          4.4577   -7.5958    2.5639 N.2       1 <0>         0.0327
     20 N4          4.8196   -6.8423    3.4632 N.2       1 <0>         0.0466
     21 N5          4.1036   -5.6348    3.4800 N.pl3     1 <0>        -0.5499
     22 C13         4.2745   -4.5148    4.4088 C.3       1 <0>         0.2131
     23 C14         3.0450   -4.4103    5.3133 C.3       1 <0>        -0.1912
     24 C15         5.5199   -4.7489    5.2662 C.3       1 <0>        -0.1573
     25 C16         4.4372   -3.2158    3.6171 C.3       1 <0>        -0.1683
     26 N6          1.3184   -6.9623    3.4389 N.4       1 <0>        -0.3719
     27 C17        -0.0041   -6.8562    4.0696 C.3       1 <0>         0.0237
     28 C18         0.1152   -6.0875    5.3603 C.ar      1 <0>        -0.1516
     29 C19         0.4522   -6.7456    6.5283 C.ar      1 <0>        -0.0876
     30 C20         0.5616   -6.0407    7.7122 C.ar      1 <0>        -0.0936
     31 C21         0.3340   -4.6770    7.7290 C.ar      1 <0>        -0.0634
     32 C22        -0.0030   -4.0180    6.5620 C.ar      1 <0>        -0.0927
     33 C23        -0.1071   -4.7222    5.3754 C.ar      1 <0>        -0.0265
     34 Cl1        -0.5239   -3.8940    3.9078 Cl        1 <0>        -0.0843
     35 C24         2.3071   -7.3801    4.4419 C.3       1 <0>         0.0306
     36 C25         2.1209   -8.8430    4.7519 C.2       1 <0>        -0.1187
     37 C26         2.8066   -9.8583    4.1966 C.2       1 <0>        -0.1165
     38 C27         2.3120  -11.0506    4.7734 C.2       1 <0>        -0.2129
     39 C28         1.3536  -10.6925    5.6468 C.2       1 <0>         0.0202
     40 O2          1.2462   -9.3539    5.6338 O.3       1 <0>        -0.1754
     41 C29         2.1592   -5.0932   -3.2096 C.3       1 <0>        -0.1376
     42 H4          3.0984   -0.0230   -1.6558 H         1 <0>         0.0991
     43 H5          1.8272   -0.1818   -2.8917 H         1 <0>         0.0928
     44 H6          1.4024    0.3186   -1.2372 H         1 <0>         0.0918
     45 H7          2.3706   -2.4592   -3.3998 H         1 <0>         0.1805
     46 H8          0.7621   -3.0695    2.2115 H         1 <0>         0.2037
     47 H9          1.3449   -1.2758    0.5521 H         1 <0>         0.1847
     48 H10         2.9830   -7.4696    1.0319 H         1 <0>         0.4532
     49 H11         2.7446   -5.4075    5.6350 H         1 <0>         0.0665
     50 H12         3.2867   -3.8043    6.1865 H         1 <0>         0.1085
     51 H13         2.2275   -3.9445    4.7629 H         1 <0>         0.0566
     52 H14         6.4058   -4.7358    4.6313 H         1 <0>         0.0784
     53 H15         5.5984   -3.9613    6.0157 H         1 <0>         0.0921
     54 H16         5.4428   -5.7163    5.7625 H         1 <0>         0.0771
     55 H17         3.5158   -3.0028    3.0751 H         1 <0>         0.0489
     56 H18         4.6528   -2.3967    4.3031 H         1 <0>         0.1001
     57 H19         5.2589   -3.3224    2.9089 H         1 <0>         0.0778
     58 H20        -0.6861   -6.3350    3.3979 H         1 <0>         0.1327
     59 H21        -0.3895   -7.8548    4.2757 H         1 <0>         0.1596
     60 H22         0.6297   -7.8108    6.5159 H         1 <0>         0.1602
     61 H23         0.8246   -6.5553    8.6245 H         1 <0>         0.1528
     62 H24         0.4193   -4.1268    8.6544 H         1 <0>         0.1564
     63 H25        -0.1810   -2.9529    6.5753 H         1 <0>         0.1556
     64 H26         3.3117   -7.2163    4.0519 H         1 <0>         0.1704
     65 H27         2.1708   -6.7956    5.3518 H         1 <0>         0.1577
     66 H28         3.5852   -9.7781    3.4524 H         1 <0>         0.1632
     67 H29         2.6403  -12.0559    4.5546 H         1 <0>         0.1684
     68 H30         0.7720  -11.3669    6.2578 H         1 <0>         0.2233
     69 H31         3.2053   -5.3988   -3.1940 H         1 <0>         0.1027
     70 H32         1.5242   -5.9620   -3.0365 H         1 <0>         0.0764
     71 H33         1.9223   -4.6577   -4.1803 H         1 <0>         0.1101
     72 H34         1.5459   -6.4272   -1.2998 H         1 <0>         0.4497
     73 H35         1.2833   -7.6449    2.6967 H         1 <0>         0.4315
@<TRIPOS>BOND
     1    1    2 1
     2    1   42 1
     3    1   43 1
     4    1   44 1
     5    2   13 ar
     6    2    3 ar
     7    3    4 ar
     8    3   45 1
     9    4    5 ar
    10    4   41 1
    11    5   12 ar
    12    5    6 2
    13    6    7 am
    14    6   72 1
    15    7    8 2
    16    7    9 1
    17    9   10 1
    18    9   11 1
    19    9   14 1
    20   11   12 2
    21   11   46 1
    22   12   13 ar
    23   13   47 1
    24   14   15 1
    25   14   16 1
    26   14   26 1
    27   16   17 1
    28   16   21 1
    29   16   18 1
    30   18   19 1
    31   18   48 1
    32   19   20 2
    33   20   21 1
    34   21   22 1
    35   22   23 1
    36   22   24 1
    37   22   25 1
    38   23   49 1
    39   23   50 1
    40   23   51 1
    41   24   52 1
    42   24   53 1
    43   24   54 1
    44   25   55 1
    45   25   56 1
    46   25   57 1
    47   26   27 1
    48   26   35 1
    49   26   73 1
    50   27   28 1
    51   27   58 1
    52   27   59 1
    53   28   33 ar
    54   28   29 ar
    55   29   30 ar
    56   29   60 1
    57   30   31 ar
    58   30   61 1
    59   31   32 ar
    60   31   62 1
    61   32   33 ar
    62   32   63 1
    63   33   34 1
    64   35   36 1
    65   35   64 1
    66   35   65 1
    67   36   40 1
    68   36   37 2
    69   37   38 1
    70   37   66 1
    71   38   39 2
    72   38   67 1
    73   39   40 1
    74   39   68 1
    75   41   69 1
    76   41   70 1
    77   41   71 1
@<TRIPOS>MOLECULE
ZINC63289590
   54    57     0     0     0
SMALL
USER_CHARGES

@<TRIPOS>ATOM
      1 C1         -0.1757    0.9397    0.0051 C.3       1 <0>        -0.1409
      2 C2         -0.0417   -0.5720   -0.1892 C.3       1 <0>        -0.1244
      3 H1         -1.0235   -1.0405   -0.2568 H         1 <0>         0.1219
      4 C3          0.8076   -0.8920   -1.4428 C.3       1 <0>         0.2685
      5 H2          0.1720   -1.1426   -2.2921 H         1 <0>         0.1367
      6 O1          1.5552   -2.0430   -0.9989 O.3       1 <0>        -0.1936
      7 N1          1.6356   -1.9800    0.4112 N.2       1 <0>        -0.2805
      8 C4          0.7738   -1.1890    0.9311 C.2       1 <0>         0.0863
      9 C5          0.5994   -0.9135    2.4024 C.3       1 <0>        -0.0916
     10 N2          1.7015    0.2217   -1.7700 N.pl3     1 <0>        -1.1072
     11 S1          2.1374    0.4989   -3.3434 S.o2      1 <0>         2.6883
     12 O2          2.9752    1.6466   -3.3365 O.2       1 <0>        -0.9417
     13 O3          2.5602   -0.7498   -3.8737 O.2       1 <0>        -0.9337
     14 C6          0.6750    0.9480   -4.2177 C.ar      1 <0>        -0.6782
     15 C7         -0.1003   -0.0297   -4.8136 C.ar      1 <0>        -0.0013
     16 C8         -1.2471    0.3191   -5.4996 C.ar      1 <0>        -0.1362
     17 C9         -1.6216    1.6533   -5.5902 C.ar      1 <0>         0.1767
     18 C10        -0.8410    2.6328   -4.9902 C.ar      1 <0>        -0.1516
     19 C11         0.3021    2.2770   -4.3016 C.ar      1 <0>         0.0087
     20 N3         -2.7826    2.0100   -6.2849 N.am      1 <0>        -0.6528
     21 C12        -3.8473    1.1837   -6.2871 C.2       1 <0>         0.5344
     22 O4         -3.8353    0.1773   -5.6103 O.2       1 <0>        -0.4807
     23 C13        -5.0528    1.5101   -7.1305 C.3       1 <0>        -0.2026
     24 S2         -6.3067    0.2164   -6.9196 S.3       1 <0>         0.1197
     25 C14        -7.6732    0.7516   -7.9857 C.3       1 <0>         0.2047
     26 N4         -8.1168    2.0969   -7.5992 N.pl3     1 <0>        -0.4662
     27 C15        -7.9433    2.8759   -8.6276 C.ar      1 <0>         0.3101
     28 C16        -8.1966    4.3058   -8.8517 C.ar      1 <0>        -0.1384
     29 C17        -7.9107    4.8520  -10.0506 C.ar      1 <0>         0.0378
     30 C18        -7.3732    4.1061  -11.1147 C.ar      1 <0>         0.0354
     31 C19        -7.1035    2.7890  -11.0157 C.ar      1 <0>        -0.1366
     32 C20        -7.3739    2.0865   -9.7537 C.ar      1 <0>         0.3094
     33 N5         -7.2174    0.8500   -9.3780 N.pl3     1 <0>        -0.4639
     34 H3          0.8160    1.3854    0.0825 H         1 <0>         0.0670
     35 H4         -0.7021    1.3703   -0.8468 H         1 <0>         0.0676
     36 H5         -0.7365    1.1404    0.9179 H         1 <0>         0.0772
     37 H6         -0.1166   -1.6201    2.8220 H         1 <0>         0.0941
     38 H7          1.5583   -1.0239    2.9088 H         1 <0>         0.0898
     39 H8          0.2305    0.1028    2.5405 H         1 <0>         0.0889
     40 H9          2.0381    0.7967   -1.0650 H         1 <0>         0.4238
     41 H10         0.1915   -1.0671   -4.7428 H         1 <0>         0.1523
     42 H11        -1.8519   -0.4449   -5.9654 H         1 <0>         0.1425
     43 H12        -1.1294    3.6713   -5.0592 H         1 <0>         0.1416
     44 H13         0.9073    3.0378   -3.8313 H         1 <0>         0.1551
     45 H14        -2.8212    2.8521   -6.7649 H         1 <0>         0.4191
     46 H15        -5.4650    2.4699   -6.8190 H         1 <0>         0.1355
     47 H16        -4.7590    1.5639   -8.1788 H         1 <0>         0.1362
     48 H17        -8.5023    0.0479   -7.9124 H         1 <0>         0.2713
     49 H18        -8.6087    4.9153   -8.0611 H         1 <0>         0.2069
     50 H19        -8.1025    5.9043  -10.1999 H         1 <0>         0.2049
     51 H20        -7.1686    4.6085  -12.0486 H         1 <0>         0.2049
     52 H21        -6.6914    2.2538  -11.8583 H         1 <0>         0.2071
     53 H22        -8.4741    2.3574   -6.7358 H         1 <0>         0.4988
     54 H23        -6.8641    0.1263   -9.9187 H         1 <0>         0.4990
@<TRIPOS>BOND
     1    1    2 1
     2    1   34 1
     3    1   35 1
     4    1   36 1
     5    2    3 1
     6    2    8 1
     7    2    4 1
     8    4    5 1
     9    4    6 1
    10    4   10 1
    11    6    7 1
    12    7    8 2
    13    8    9 1
    14    9   37 1
    15    9   38 1
    16    9   39 1
    17   10   11 1
    18   10   40 1
    19   11   12 2
    20   11   13 2
    21   11   14 1
    22   14   19 ar
    23   14   15 ar
    24   15   16 ar
    25   15   41 1
    26   16   17 ar
    27   16   42 1
    28   17   18 ar
    29   17   20 1
    30   18   19 ar
    31   18   43 1
    32   19   44 1
    33   20   21 am
    34   20   45 1
    35   21   22 2
    36   21   23 1
    37   23   24 1
    38   23   46 1
    39   23   47 1
    40   24   25 1
    41   25   33 1
    42   25   26 1
    43   25   48 1
    44   26   27 2
    45   26   53 1
    46   27   32 ar
    47   27   28 ar
    48   28   29 ar
    49   28   49 1
    50   29   30 ar
    51   29   50 1
    52   30   31 ar
    53   30   51 1
    54   31   32 ar
    55   31   52 1
    56   32   33 2
    57   33   54 1
@<TRIPOS>MOLECULE
ZINC64031631
   67    71     0     0     0
SMALL
USER_CHARGES

@<TRIPOS>ATOM
      1 C1          0.6100    1.7467   -0.1060 C.3       1 <0>        -0.1553
      2 C2          0.5074    0.2222   -0.0259 C.3       1 <0>        -0.1175
      3 C3          0.9560   -0.3897   -1.3545 C.3       1 <0>        -0.1425
      4 C4          0.8534   -1.9141   -1.2743 C.3       1 <0>         0.1735
      5 H1         -0.1664   -2.2013   -1.0184 H         1 <0>         0.0997
      6 C5          1.2419   -2.5309   -2.6238 C.3       1 <0>        -0.1704
      7 H2          1.0052   -3.5949   -2.6203 H         1 <0>         0.1243
      8 C6          2.7225   -2.3438   -2.8402 C.2       1 <0>         0.4146
      9 O1          3.1633   -2.2784   -3.9709 O.2       1 <0>        -0.4650
     10 C7          3.5930   -2.2445   -1.7484 C.2       1 <0>        -0.3620
     11 C8          3.1255   -2.2922   -0.4780 C.2       1 <0>         0.2658
     12 N1          1.7831   -2.4214   -0.2536 N.pl3     1 <0>        -0.6038
     13 C9          1.2826   -3.0499    0.9714 C.3       1 <0>         0.1622
     14 C10         1.1264   -4.5320    0.7480 C.ar      1 <0>        -0.1062
     15 C11        -0.0693   -5.0352    0.2699 C.ar      1 <0>        -0.1043
     16 C12        -0.2173   -6.3939    0.0628 C.ar      1 <0>        -0.1070
     17 C13         0.8333   -7.2552    0.3348 C.ar      1 <0>         0.0426
     18 C14         2.0377   -6.7484    0.8165 C.ar      1 <0>         0.0438
     19 C15         2.1808   -5.3848    1.0162 C.ar      1 <0>        -0.0827
     20 O2          2.9041   -7.7864    1.0037 O.3       1 <0>        -0.3027
     21 C16         2.0864   -8.9714    1.0206 C.3       1 <0>         0.2123
     22 O3          0.9452   -8.6108    0.2201 O.3       1 <0>        -0.3078
     23 C17         4.0812   -2.2038    0.6838 C.3       1 <0>        -0.1435
     24 C18         0.4782   -1.8479   -3.7291 C.2       1 <0>         0.5471
     25 O4          0.9324   -0.8543   -4.2557 O.2       1 <0>        -0.4677
     26 N2         -0.7094   -2.3413   -4.1322 N.am      1 <0>        -0.7450
     27 C19        -1.4517   -1.6774   -5.2066 C.3       1 <0>         0.1388
     28 H3         -1.3006   -0.6000   -5.1407 H         1 <0>         0.1632
     29 C20        -0.9486   -2.1811   -6.5609 C.3       1 <0>        -0.1985
     30 C21        -2.9424   -1.9928   -5.0670 C.3       1 <0>         0.2383
     31 N3         -3.1696   -3.4346   -5.2265 N.pl3     1 <0>        -0.4734
     32 C22        -3.9539   -3.5952   -6.2529 C.ar      1 <0>         0.3256
     33 C23        -4.5264   -4.7859   -6.8961 C.ar      1 <0>        -0.1410
     34 C24        -5.3254   -4.6412   -7.9722 C.ar      1 <0>         0.0393
     35 C25        -5.6421   -3.3843   -8.5178 C.ar      1 <0>         0.0364
     36 C26        -5.1703   -2.2300   -8.0057 C.ar      1 <0>        -0.1378
     37 C27        -4.2894   -2.2649   -6.8301 C.ar      1 <0>         0.3249
     38 N4         -3.6996   -1.3333   -6.1383 N.pl3     1 <0>        -0.4597
     39 H4          1.6429    2.0313   -0.3067 H         1 <0>         0.0590
     40 H5         -0.0302    2.1122   -0.9089 H         1 <0>         0.0503
     41 H6          0.2904    2.1826    0.8405 H         1 <0>         0.0610
     42 H7          1.1475   -0.1433    0.7770 H         1 <0>         0.0696
     43 H8         -0.5255   -0.0624    0.1748 H         1 <0>         0.0581
     44 H9          0.3159   -0.0241   -2.1574 H         1 <0>         0.0723
     45 H10         1.9889   -0.1051   -1.5552 H         1 <0>         0.0828
     46 H11         4.6527   -2.1286   -1.9215 H         1 <0>         0.1474
     47 H12         1.9893   -2.8773    1.7832 H         1 <0>         0.1019
     48 H13         0.3166   -2.6180    1.2328 H         1 <0>         0.0970
     49 H14        -0.8895   -4.3653    0.0580 H         1 <0>         0.1302
     50 H15        -1.1524   -6.7843   -0.3108 H         1 <0>         0.1338
     51 H16         3.1151   -4.9885    1.3854 H         1 <0>         0.1381
     52 H17         2.6188   -9.8105    0.5726 H         1 <0>         0.1399
     53 H18         1.7799   -9.2108    2.0388 H         1 <0>         0.0934
     54 H19         5.1002   -2.1056    0.3094 H         1 <0>         0.0948
     55 H20         3.8327   -1.3349    1.2933 H         1 <0>         0.0922
     56 H21         4.0019   -3.1068    1.2890 H         1 <0>         0.0853
     57 H22        -1.0726   -3.1360   -3.7110 H         1 <0>         0.4014
     58 H23        -1.5009   -1.6871   -7.3603 H         1 <0>         0.0765
     59 H24         0.1133   -1.9564   -6.6604 H         1 <0>         0.1235
     60 H25        -1.0997   -3.2586   -6.6268 H         1 <0>         0.0689
     61 H26        -3.3050   -1.6615   -4.0939 H         1 <0>         0.2462
     62 H27        -4.3082   -5.7704   -6.5095 H         1 <0>         0.2068
     63 H28        -5.7386   -5.5258   -8.4338 H         1 <0>         0.2054
     64 H29        -6.2887   -3.3422   -9.3818 H         1 <0>         0.2056
     65 H30        -5.4381   -1.2858   -8.4565 H         1 <0>         0.2081
     66 H31        -2.8022   -4.1386   -4.6693 H         1 <0>         0.4930
     67 H32        -3.7511   -0.3783   -6.3005 H         1 <0>         0.4987
@<TRIPOS>BOND
     1    1    2 1
     2    1   39 1
     3    1   40 1
     4    1   41 1
     5    2    3 1
     6    2   42 1
     7    2   43 1
     8    3    4 1
     9    3   44 1
    10    3   45 1
    11    4    5 1
    12    4   12 1
    13    4    6 1
    14    6    7 1
    15    6    8 1
    16    6   24 1
    17    8    9 2
    18    8   10 1
    19   10   11 2
    20   10   46 1
    21   11   12 1
    22   11   23 1
    23   12   13 1
    24   13   14 1
    25   13   47 1
    26   13   48 1
    27   14   19 ar
    28   14   15 ar
    29   15   16 ar
    30   15   49 1
    31   16   17 ar
    32   16   50 1
    33   17   22 1
    34   17   18 ar
    35   18   19 ar
    36   18   20 1
    37   19   51 1
    38   20   21 1
    39   21   22 1
    40   21   52 1
    41   21   53 1
    42   23   54 1
    43   23   55 1
    44   23   56 1
    45   24   25 2
    46   24   26 am
    47   26   27 1
    48   26   57 1
    49   27   28 1
    50   27   29 1
    51   27   30 1
    52   29   58 1
    53   29   59 1
    54   29   60 1
    55   30   38 1
    56   30   31 1
    57   30   61 1
    58   31   32 2
    59   31   66 1
    60   32   37 ar
    61   32   33 ar
    62   33   34 ar
    63   33   62 1
    64   34   35 ar
    65   34   63 1
    66   35   36 ar
    67   35   64 1
    68   36   37 ar
    69   36   65 1
    70   37   38 2
    71   38   67 1
@<TRIPOS>MOLECULE
ZINC09663881
   41    44     0     0     0
SMALL
USER_CHARGES
5-[2-(5-bromo-2-thienyl)-2-oxo-ethyl]-3-(3-chlorophenyl)-2,2-dioxo-2$l^{6}-thia-3,5-diazabicyclo[4.4.0]deca-7,9,11-trien-4-one
@<TRIPOS>ATOM
      1 C1         -0.0128    1.0760   -0.0172 C.ar      1 <0>        -0.0249
      2 C2         -1.2251    1.7415   -0.0086 C.ar      1 <0>        -0.1454
      3 C3         -1.2482    3.1294    0.0122 C.ar      1 <0>         0.0322
      4 C4         -0.0669    3.8141    0.0126 C.ar      1 <0>        -0.6750
      5 C5          1.1689    3.1631   -0.0013 C.ar      1 <0>         0.2248
      6 C6          1.1792    1.7730   -0.0163 C.ar      1 <0>        -0.1593
      7 N1          2.3477    3.8934    0.0005 N.am      1 <0>        -0.5431
      8 C7          2.5487    5.2016    0.0144 C.2       1 <0>         0.6989
      9 O1          3.7048    5.5782    0.0131 O.2       1 <0>        -0.5097
     10 N2          1.5945    6.1616    0.0303 N.am      1 <0>        -0.8630
     11 S1          0.0156    5.5866    0.0319 S.o2      1 <0>         2.6316
     12 O2         -0.5378    5.9841    1.2789 O.2       1 <0>        -0.9130
     13 O3         -0.5497    6.0096   -1.2012 O.2       1 <0>        -0.9069
     14 C8          1.8994    7.5273    0.0439 C.ar      1 <0>         0.1703
     15 C9          0.9880    8.4386    0.5618 C.ar      1 <0>        -0.1485
     16 C10         1.2932    9.7853    0.5784 C.ar      1 <0>        -0.0741
     17 C11         2.5005   10.2288    0.0705 C.ar      1 <0>        -0.1117
     18 C12         3.4088    9.3244   -0.4511 C.ar      1 <0>        -0.0161
     19 C13         3.1109    7.9745   -0.4656 C.ar      1 <0>        -0.1018
     20 Cl1         4.9230    9.8855   -1.0882 Cl        1 <0>        -0.0544
     21 C14         3.5697    3.0853   -0.0150 C.3       1 <0>         0.0649
     22 C15         3.9073    2.7126   -1.4356 C.2       1 <0>         0.4203
     23 O4          3.1962    3.0858   -2.3468 O.2       1 <0>        -0.4188
     24 C16         5.0498    1.9300   -1.7072 C.2       1 <0>        -0.2725
     25 C17         5.5346    1.4809   -2.9321 C.2       1 <0>        -0.0460
     26 C18         6.6785    0.7288   -2.9107 C.2       1 <0>        -0.1417
     27 C19         7.2765    0.4607   -1.7161 C.2       1 <0>        -0.1765
     28 S2          6.2536    1.2651   -0.5707 S.3       1 <0>         0.2315
     29 Br1         8.8470   -0.5402   -1.3877 Br        1 <0>         0.0591
     30 H1          0.0018   -0.0038   -0.0293 H         1 <0>         0.1463
     31 H2         -2.1499    1.1838   -0.0136 H         1 <0>         0.1483
     32 H3         -2.1884    3.6608    0.0228 H         1 <0>         0.1492
     33 H4          2.1179    1.2391   -0.0276 H         1 <0>         0.1415
     34 H5          0.0430    8.0938    0.9547 H         1 <0>         0.1424
     35 H6          0.5863   10.4935    0.9849 H         1 <0>         0.1496
     36 H7          2.7348   11.2830    0.0806 H         1 <0>         0.1440
     37 H8          3.8199    7.2687   -0.8724 H         1 <0>         0.1648
     38 H9          4.3227    3.6121    0.3794 H         1 <0>         0.1341
     39 H10         3.4138    2.1796    0.5710 H         1 <0>         0.1371
     40 H11         5.0307    1.7148   -3.8583 H         1 <0>         0.1584
     41 H12         7.1018    0.3520   -3.8301 H         1 <0>         0.1532
@<TRIPOS>BOND
     1    1    6 ar
     2    1    2 ar
     3    1   30 1
     4    2    3 ar
     5    2   31 1
     6    3    4 ar
     7    3   32 1
     8    4   11 1
     9    4    5 ar
    10    5    6 ar
    11    5    7 1
    12    6   33 1
    13    7    8 am
    14    7   21 1
    15    8    9 2
    16    8   10 am
    17   10   11 1
    18   10   14 1
    19   11   12 2
    20   11   13 2
    21   14   19 ar
    22   14   15 ar
    23   15   16 ar
    24   15   34 1
    25   16   17 ar
    26   16   35 1
    27   17   18 ar
    28   17   36 1
    29   18   19 ar
    30   18   20 1
    31   19   37 1
    32   21   22 1
    33   21   38 1
    34   21   39 1
    35   22   23 2
    36   22   24 1
    37   24   28 1
    38   24   25 2
    39   25   26 1
    40   25   40 1
    41   26   27 2
    42   26   41 1
    43   27   28 1
    44   27   29 1
@<TRIPOS>MOLECULE
ZINC26503268
   63    67     0     0     0
SMALL
USER_CHARGES
2-[(3R,5R)-3,5-dimethyl-1-piperidyl]-3-[(Z)-(4-oxo-3-phenethyl-2-thioxo-thiazolidin-5-ylidene)methyl]pyrido[2,1-b]pyrimidin-4-one
@<TRIPOS>ATOM
      1 C1         -1.7254    0.2570    0.3495 C.3       1 <0>        -0.1471
      2 C2         -1.5401    1.2914    1.4615 C.3       1 <0>        -0.0902
      3 H1         -2.5256    1.6511    1.7922 H         1 <0>         0.0825
      4 C3         -0.7141    2.4675    0.9332 C.3       1 <0>        -0.1136
      5 C4         -0.4825    3.4690    2.0681 C.3       1 <0>        -0.0851
      6 H2          0.1442    4.2979    1.7072 H         1 <0>         0.0825
      7 C5          0.2203    2.7626    3.2297 C.3       1 <0>         0.0670
      8 N1         -0.6100    1.6463    3.6997 N.pl3     1 <0>        -0.4805
      9 C6         -0.8067    0.6482    2.6407 C.3       1 <0>         0.0676
     10 C7         -0.0688    1.0692    4.8277 C.2       1 <0>         0.4400
     11 C8         -0.4456    1.5264    6.1125 C.2       1 <0>        -0.3327
     12 C9          0.1321    0.9020    7.2437 C.2       1 <0>         0.5342
     13 O1         -0.1663    1.2612    8.3697 O.2       1 <0>        -0.5082
     14 N2          1.0236   -0.0946    7.0546 N.am      1 <0>        -0.4279
     15 C10         1.5894   -0.6979    8.1383 C.2       1 <0>         0.1066
     16 C11         2.4857   -1.6983    7.9841 C.2       1 <0>        -0.1627
     17 C12         2.8443   -2.1290    6.6995 C.2       1 <0>        -0.0157
     18 C13         2.2845   -1.5318    5.6093 C.2       1 <0>        -0.1414
     19 C14         1.3542   -0.4923    5.7890 C.2       1 <0>         0.4210
     20 N3          0.8125    0.0859    4.7167 N.2       1 <0>        -0.5704
     21 C15        -1.3797    2.5778    6.2628 C.2       1 <0>         0.1648
     22 C16        -2.6216    2.4720    5.7065 C.2       1 <0>        -0.2358
     23 C17        -3.6673    3.4360    5.6353 C.2       1 <0>         0.5455
     24 O2         -3.5277    4.5482    6.1131 O.2       1 <0>        -0.4675
     25 N4         -4.7936    3.0901    5.0366 N.am      1 <0>        -0.5220
     26 C18        -4.9485    1.8562    4.5070 C.2       1 <0>         0.2800
     27 S1         -6.3050    1.1989    3.6952 S.2       1 <0>        -0.3599
     28 S2         -3.3752    1.0882    4.8624 S.3       1 <0>         0.0841
     29 C19        -5.8900    4.0576    4.9461 C.3       1 <0>         0.0889
     30 C20        -5.7489    4.8692    3.6568 C.3       1 <0>        -0.0888
     31 C21        -6.8766    5.8644    3.5637 C.ar      1 <0>        -0.0829
     32 C22        -8.0569    5.5148    2.9347 C.ar      1 <0>        -0.1087
     33 C23        -9.0930    6.4262    2.8531 C.ar      1 <0>        -0.1184
     34 C24        -8.9455    7.6904    3.3926 C.ar      1 <0>        -0.1197
     35 C25        -7.7633    8.0418    4.0171 C.ar      1 <0>        -0.1195
     36 C26        -6.7288    7.1289    4.1024 C.ar      1 <0>        -0.1122
     37 C27        -1.8275    4.0211    2.5446 C.3       1 <0>        -0.1460
     38 H3         -2.2526    0.7199   -0.4977 H         1 <0>         0.0601
     39 H4         -2.3159   -0.5892    0.7306 H         1 <0>         0.0591
     40 H5         -0.7410   -0.1033    0.0162 H         1 <0>         0.0551
     41 H6          0.2537    2.0987    0.5627 H         1 <0>         0.0641
     42 H7         -1.2580    2.9583    0.1126 H         1 <0>         0.0696
     43 H8          1.1932    2.3777    2.8901 H         1 <0>         0.0550
     44 H9          0.3752    3.4757    4.0528 H         1 <0>         0.0806
     45 H10        -1.4045   -0.1881    3.0322 H         1 <0>         0.0810
     46 H11         0.1713    0.2738    2.3041 H         1 <0>         0.0615
     47 H12         1.3186   -0.3727    9.1319 H         1 <0>         0.1879
     48 H13         2.9257   -2.1664    8.8522 H         1 <0>         0.1663
     49 H14         3.5594   -2.9287    6.5742 H         1 <0>         0.1596
     50 H15         2.5535   -1.8547    4.6144 H         1 <0>         0.1712
     51 H16        -1.1053    3.4807    6.8280 H         1 <0>         0.1564
     52 H17        -6.8512    3.5229    4.9394 H         1 <0>         0.1137
     53 H18        -5.8534    4.7353    5.8118 H         1 <0>         0.1057
     54 H19        -4.7876    5.4039    3.6635 H         1 <0>         0.0786
     55 H20        -5.7855    4.1916    2.7911 H         1 <0>         0.0839
     56 H21        -8.1707    4.5284    2.5099 H         1 <0>         0.1263
     57 H22       -10.0167    6.1516    2.3656 H         1 <0>         0.1233
     58 H23        -9.7540    8.4034    3.3266 H         1 <0>         0.1217
     59 H24        -7.6481    9.0295    4.4386 H         1 <0>         0.1222
     60 H25        -5.8052    7.4035    4.5903 H         1 <0>         0.1217
     61 H26        -1.6605    4.7405    3.3598 H         1 <0>         0.0509
     62 H27        -2.4552    3.1942    2.9081 H         1 <0>         0.0638
     63 H28        -2.3337    4.5256    1.7084 H         1 <0>         0.0532
@<TRIPOS>BOND
     1    1    2 1
     2    1   38 1
     3    1   39 1
     4    1   40 1
     5    2    3 1
     6    2    9 1
     7    2    4 1
     8    4    5 1
     9    4   41 1
    10    4   42 1
    11    5    6 1
    12    5    7 1
    13    5   37 1
    14    7    8 1
    15    7   43 1
    16    7   44 1
    17    8    9 1
    18    8   10 1
    19    9   45 1
    20    9   46 1
    21   10   20 1
    22   10   11 2
    23   11   12 1
    24   11   21 1
    25   12   13 2
    26   12   14 am
    27   14   19 1
    28   14   15 1
    29   15   16 2
    30   15   47 1
    31   16   17 1
    32   16   48 1
    33   17   18 2
    34   17   49 1
    35   18   19 1
    36   18   50 1
    37   19   20 2
    38   21   22 2
    39   21   51 1
    40   22   28 1
    41   22   23 1
    42   23   24 2
    43   23   25 am
    44   25   26 1
    45   25   29 1
    46   26   27 2
    47   26   28 1
    48   29   30 1
    49   29   52 1
    50   29   53 1
    51   30   31 1
    52   30   54 1
    53   30   55 1
    54   31   36 ar
    55   31   32 ar
    56   32   33 ar
    57   32   56 1
    58   33   34 ar
    59   33   57 1
    60   34   35 ar
    61   34   58 1
    62   35   36 ar
    63   35   59 1
    64   36   60 1
    65   37   61 1
    66   37   62 1
    67   37   63 1
@<TRIPOS>MOLECULE
ZINC38607244
   56    59     0     0     0
SMALL
USER_CHARGES

@<TRIPOS>ATOM
      1 C1          0.6922    1.3342   -0.0017 C.3       1 <0>        -0.1428
      2 C2          0.0866   -0.0458    0.0020 C.2       1 <0>         0.0886
      3 C3         -0.1717   -0.7067   -1.1882 C.2       1 <0>        -0.1427
      4 C4         -0.7606   -2.0483   -1.1584 C.2       1 <0>         0.5731
      5 O1         -0.9872   -2.6281   -2.2043 O.2       1 <0>        -0.4725
      6 N1         -1.0535   -2.6470    0.0090 N.am      1 <0>        -0.5497
      7 C5         -0.8186   -2.0391    1.1858 C.2       1 <0>         0.5623
      8 O2         -1.0944   -2.6065    2.2261 O.2       1 <0>        -0.4851
      9 C6         -0.2237   -0.6936    1.2208 C.2       1 <0>        -0.2213
     10 C7          0.0260   -0.0656    2.4355 C.2       1 <0>         0.1098
     11 C8         -0.0595   -0.8005    3.6438 C.ar      1 <0>        -0.1616
     12 C9          0.5612   -2.0564    3.7513 C.ar      1 <0>         0.0221
     13 C10         0.4752   -2.7588    4.9185 C.ar      1 <0>        -0.1623
     14 C11        -0.2255   -2.2336    6.0009 C.ar      1 <0>         0.1728
     15 C12        -0.8434   -0.9900    5.9011 C.ar      1 <0>        -0.2266
     16 C13        -0.7605   -0.2742    4.7418 C.ar      1 <0>        -0.0254
     17 O3         -0.3069   -2.9368    7.1575 O.3       1 <0>        -0.3053
     18 C14        -1.0408   -2.3406    8.2289 C.3       1 <0>         0.1001
     19 C15        -1.0228   -3.2600    9.4228 C.ar      1 <0>        -0.0810
     20 C16        -0.3524   -4.4672    9.3554 C.ar      1 <0>        -0.0722
     21 C17        -0.3354   -5.3108   10.4499 C.ar      1 <0>        -0.1027
     22 C18        -0.9891   -4.9474   11.6142 C.ar      1 <0>        -0.0223
     23 C19        -1.6596   -3.7396   11.6824 C.ar      1 <0>        -0.0991
     24 C20        -1.6722   -2.8933   10.5880 C.ar      1 <0>        -0.0193
     25 Cl1        -2.5084   -1.3744   10.6746 Cl        1 <0>        -0.0504
     26 Cl2        -0.9682   -6.0075   12.9887 Cl        1 <0>        -0.0511
     27 C21        -1.6410   -3.9890   -0.0006 C.3       1 <0>         0.1023
     28 C22        -0.5246   -5.0347    0.0307 C.3       1 <0>         0.0670
     29 H1          0.0860   -4.9086    0.9247 H         1 <0>         0.0754
     30 C23        -1.1241   -6.4629   -0.0141 C.3       1 <0>        -0.1471
     31 C24         0.0649   -7.2629   -0.6127 C.3       1 <0>        -0.1543
     32 C25         0.6991   -6.2362   -1.5754 C.3       1 <0>         0.0505
     33 O4          0.2896   -4.9303   -1.1481 O.3       1 <0>        -0.3672
     34 C26         0.1346   -0.0823   -2.4399 C.1       1 <0>         0.2718
     35 N2          0.3777    0.4131   -3.4329 N.1       1 <0>        -0.4026
     36 H2          1.7791    1.2540    0.0175 H         1 <0>         0.1016
     37 H3          0.3828    1.8643   -0.9025 H         1 <0>         0.0863
     38 H4          0.3527    1.8823    0.8772 H         1 <0>         0.0897
     39 H5          0.2851    0.9826    2.4582 H         1 <0>         0.1550
     40 H6          1.1047   -2.4651    2.9124 H         1 <0>         0.1270
     41 H7          0.9515   -3.7245    5.0024 H         1 <0>         0.1353
     42 H8         -1.3856   -0.5886    6.7445 H         1 <0>         0.1335
     43 H9         -1.2365    0.6924    4.6673 H         1 <0>         0.1328
     44 H10        -0.5834   -1.3882    8.4968 H         1 <0>         0.0880
     45 H11        -2.0711   -2.1733    7.9147 H         1 <0>         0.0879
     46 H12         0.1579   -4.7512    8.4470 H         1 <0>         0.1526
     47 H13         0.1878   -6.2541   10.3964 H         1 <0>         0.1446
     48 H14        -2.1699   -3.4556   12.5908 H         1 <0>         0.1490
     49 H15        -2.2792   -4.1125    0.8744 H         1 <0>         0.1114
     50 H16        -2.2354   -4.1190   -0.9050 H         1 <0>         0.1045
     51 H17        -1.3714   -6.8167    0.9868 H         1 <0>         0.0873
     52 H18        -1.9943   -6.5033   -0.6693 H         1 <0>         0.0834
     53 H19         0.7702   -7.5510    0.1669 H         1 <0>         0.0770
     54 H20        -0.2911   -8.1373   -1.1576 H         1 <0>         0.0842
     55 H21         1.7856   -6.3132   -1.5347 H         1 <0>         0.0670
     56 H22         0.3521   -6.4194   -2.5923 H         1 <0>         0.0705
@<TRIPOS>BOND
     1    1    2 1
     2    1   36 1
     3    1   37 1
     4    1   38 1
     5    2    9 1
     6    2    3 2
     7    3    4 1
     8    3   34 1
     9    4    5 2
    10    4    6 am
    11    6    7 am
    12    6   27 1
    13    7    8 2
    14    7    9 1
    15    9   10 2
    16   10   11 1
    17   10   39 1
    18   11   16 ar
    19   11   12 ar
    20   12   13 ar
    21   12   40 1
    22   13   14 ar
    23   13   41 1
    24   14   15 ar
    25   14   17 1
    26   15   16 ar
    27   15   42 1
    28   16   43 1
    29   17   18 1
    30   18   19 1
    31   18   44 1
    32   18   45 1
    33   19   24 ar
    34   19   20 ar
    35   20   21 ar
    36   20   46 1
    37   21   22 ar
    38   21   47 1
    39   22   23 ar
    40   22   26 1
    41   23   24 ar
    42   23   48 1
    43   24   25 1
    44   27   28 1
    45   27   49 1
    46   27   50 1
    47   28   29 1
    48   28   33 1
    49   28   30 1
    50   30   31 1
    51   30   51 1
    52   30   52 1
    53   31   32 1
    54   31   53 1
    55   31   54 1
    56   32   33 1
    57   32   55 1
    58   32   56 1
    59   34   35 3
@<TRIPOS>MOLECULE
ZINC39835706
   50    54     0     0     0
SMALL
USER_CHARGES

@<TRIPOS>ATOM
      1 C1          2.1750    1.4211    0.0419 C.ar      1 <0>        -0.1175
      2 C2          2.0967    1.8853   -1.2582 C.ar      1 <0>        -0.0774
      3 C3          1.8579    1.0043   -2.2965 C.ar      1 <0>        -0.1442
      4 C4          1.6961   -0.3448   -2.0364 C.ar      1 <0>         0.1097
      5 C5          1.7745   -0.8126   -0.7306 C.ar      1 <0>         0.0472
      6 C6          2.0148    0.0748    0.3078 C.ar      1 <0>        -0.0781
      7 O1          1.6157   -2.1376   -0.4712 O.3       1 <0>        -0.2163
      8 C7          0.3580   -2.6051   -0.3019 C.2       1 <0>         0.4690
      9 C8          0.1425   -3.9608    0.0307 C.2       1 <0>        -0.3499
     10 C9         -1.1904   -4.4084    0.1987 C.2       1 <0>         0.5471
     11 O2         -1.4228   -5.5699    0.4863 O.2       1 <0>        -0.5064
     12 N1         -2.1997   -3.5260    0.0354 N.am      1 <0>        -0.4309
     13 C10        -3.4863   -3.9467    0.1950 C.2       1 <0>         0.1118
     14 C11        -4.5195   -3.0887    0.0380 C.2       1 <0>        -0.1657
     15 C12        -4.2762   -1.7487   -0.2927 C.2       1 <0>        -0.0097
     16 C13        -2.9925   -1.3182   -0.4540 C.2       1 <0>        -0.1446
     17 C14        -1.9308   -2.2249   -0.2863 C.2       1 <0>         0.4415
     18 N2         -0.6781   -1.7939   -0.4414 N.2       1 <0>        -0.5818
     19 C15         1.2317   -4.8499    0.1915 C.2       1 <0>         0.1765
     20 C16         2.2186   -4.5644    1.0895 C.2       1 <0>        -0.2635
     21 C17         2.2938   -3.5150    2.0501 C.2       1 <0>         0.5516
     22 O3          1.3932   -2.7021    2.1619 O.2       1 <0>        -0.4678
     23 N3          3.3684   -3.4487    2.8167 N.am      1 <0>        -0.5193
     24 C18         4.3673   -4.3509    2.6928 C.2       1 <0>         0.2854
     25 S1          5.8339   -4.4557    3.5697 S.2       1 <0>        -0.3464
     26 S2          3.7652   -5.4101    1.3863 S.3       1 <0>         0.0717
     27 C19         3.4786   -2.3819    3.8147 C.3       1 <0>         0.1322
     28 C20         2.8824   -2.8493    5.1175 C.ar      1 <0>        -0.1341
     29 C21         1.5400   -2.6436    5.3760 C.ar      1 <0>        -0.0630
     30 C22         0.9921   -3.0722    6.5701 C.ar      1 <0>        -0.1606
     31 C23         1.7882   -3.7077    7.5079 C.ar      1 <0>         0.1135
     32 C24         3.1326   -3.9131    7.2480 C.ar      1 <0>        -0.1568
     33 C25         3.6772   -3.4884    6.0509 C.ar      1 <0>        -0.0628
     34 F1          1.2538   -4.1266    8.6758 F         1 <0>        -0.1362
     35 F2          1.4618   -1.2059   -3.0507 F         1 <0>        -0.1285
     36 H1          2.3661    2.1113    0.8503 H         1 <0>         0.1400
     37 H2          2.2220    2.9383   -1.4630 H         1 <0>         0.1416
     38 H3          1.7972    1.3694   -3.3111 H         1 <0>         0.1454
     39 H4          2.0766   -0.2864    1.3237 H         1 <0>         0.1383
     40 H5         -3.6829   -4.9777    0.4495 H         1 <0>         0.1896
     41 H6         -5.5337   -3.4365    0.1673 H         1 <0>         0.1678
     42 H7         -5.0999   -1.0618   -0.4193 H         1 <0>         0.1613
     43 H8         -2.7925   -0.2880   -0.7092 H         1 <0>         0.1719
     44 H9          1.2819   -5.7543   -0.3966 H         1 <0>         0.1535
     45 H10         4.5289   -2.1318    3.9648 H         1 <0>         0.1211
     46 H11         2.9415   -1.5003    3.4650 H         1 <0>         0.1110
     47 H12         0.9193   -2.1476    4.6445 H         1 <0>         0.1355
     48 H13        -0.0566   -2.9111    6.7719 H         1 <0>         0.1367
     49 H14         3.7546   -4.4084    7.9788 H         1 <0>         0.1407
     50 H15         4.7248   -3.6525    5.8460 H         1 <0>         0.1498
@<TRIPOS>BOND
     1    1    6 ar
     2    1    2 ar
     3    1   36 1
     4    2    3 ar
     5    2   37 1
     6    3    4 ar
     7    3   38 1
     8    4    5 ar
     9    4   35 1
    10    5    6 ar
    11    5    7 1
    12    6   39 1
    13    7    8 1
    14    8   18 1
    15    8    9 2
    16    9   10 1
    17    9   19 1
    18   10   11 2
    19   10   12 am
    20   12   17 1
    21   12   13 1
    22   13   14 2
    23   13   40 1
    24   14   15 1
    25   14   41 1
    26   15   16 2
    27   15   42 1
    28   16   17 1
    29   16   43 1
    30   17   18 2
    31   19   20 2
    32   19   44 1
    33   20   26 1
    34   20   21 1
    35   21   22 2
    36   21   23 am
    37   23   24 1
    38   23   27 1
    39   24   25 2
    40   24   26 1
    41   27   28 1
    42   27   45 1
    43   27   46 1
    44   28   33 ar
    45   28   29 ar
    46   29   30 ar
    47   29   47 1
    48   30   31 ar
    49   30   48 1
    50   31   32 ar
    51   31   34 1
    52   32   33 ar
    53   32   49 1
    54   33   50 1
@<TRIPOS>MOLECULE
ZINC28615410
   53    56     0     0     0
SMALL
USER_CHARGES

@<TRIPOS>ATOM
      1 C1          1.0697    0.0209   -0.0544 C.3       1 <0>        -0.1773
      2 C2          1.5042   -1.1654   -0.9173 C.3       1 <0>         0.0859
      3 N1          0.5032   -2.2308   -0.8226 N.pl3     1 <0>        -0.5052
      4 C3          0.6139   -3.1966    0.1616 C.ar      1 <0>         0.1634
      5 C4          1.6143   -3.3047    1.1429 C.ar      1 <0>        -0.1562
      6 C5          1.5935   -4.3299    2.0642 C.ar      1 <0>         0.1749
      7 C6          0.5855   -5.2857    2.0523 C.ar      1 <0>        -0.2020
      8 C7         -0.4109   -5.2003    1.0962 C.ar      1 <0>         0.0059
      9 C8         -0.3883   -4.1774    0.1779 C.ar      1 <0>        -0.2077
     10 S1         -1.4418   -3.7150   -1.1761 S.3       1 <0>         0.1635
     11 C9         -0.5435   -2.2656   -1.7049 C.2       1 <0>         0.3000
     12 C10        -0.8318   -1.3953   -2.7482 C.2       1 <0>        -0.3431
     13 C11        -1.9063   -1.4186   -3.6561 C.2       1 <0>         0.5602
     14 O1         -2.7551   -2.2938   -3.5909 O.2       1 <0>        -0.4871
     15 N2         -1.9817   -0.4771   -4.5804 N.am      1 <0>        -0.5233
     16 C12        -1.0168    0.5059   -4.6429 C.2       1 <0>         0.3170
     17 C13        -0.9119    1.5725   -5.5255 C.2       1 <0>        -0.3587
     18 C14        -1.5077    1.7506   -6.7893 C.2       1 <0>         0.5504
     19 O2         -2.2434    0.9107   -7.2834 O.2       1 <0>        -0.4761
     20 N3         -1.2207    2.8859   -7.4084 N.am      1 <0>        -0.5175
     21 C15        -0.4054    3.7915   -6.8355 C.2       1 <0>         0.2249
     22 S2          0.0892    5.3073   -7.4589 S.2       1 <0>        -0.3934
     23 S3          0.0081    3.0931   -5.3626 S.3       1 <0>         0.2173
     24 C16        -1.7951    3.1584   -8.7282 C.3       1 <0>         0.1189
     25 C17        -3.1129    3.8709   -8.5651 C.2       1 <0>        -0.1867
     26 C18        -3.3154    5.0187   -9.1634 C.2       1 <0>        -0.1427
     27 S4          0.0592    0.0562   -3.2894 S.3       1 <0>         0.0964
     28 C19        -3.0899   -0.4780   -5.5386 C.3       1 <0>         0.1177
     29 C20        -2.7682   -1.4107   -6.6777 C.2       1 <0>        -0.1425
     30 C21        -3.6200   -2.3455   -7.0194 C.2       1 <0>        -0.1732
     31 O3          2.5766   -4.4072    3.0003 O.3       1 <0>        -0.3101
     32 C22         2.5041   -5.4905    3.9293 C.3       1 <0>         0.0233
     33 H1          1.8145    0.8136   -0.1250 H         1 <0>         0.0895
     34 H2          0.1080    0.3936   -0.4070 H         1 <0>         0.0707
     35 H3          0.9770   -0.2993    0.9833 H         1 <0>         0.0691
     36 H4          1.5969   -0.8453   -1.9551 H         1 <0>         0.0952
     37 H5          2.4660   -1.5382   -0.5648 H         1 <0>         0.1076
     38 H6          2.4100   -2.5753    1.1753 H         1 <0>         0.1435
     39 H7          0.5800   -6.0846    2.7790 H         1 <0>         0.1502
     40 H8         -1.2027   -5.9344    1.0710 H         1 <0>         0.1476
     41 H9         -1.1111    3.7859   -9.2996 H         1 <0>         0.1127
     42 H10        -1.9533    2.2184   -9.2568 H         1 <0>         0.1084
     43 H11        -3.8905    3.4354   -7.9551 H         1 <0>         0.1112
     44 H12        -4.2599    5.5293   -9.0465 H         1 <0>         0.1044
     45 H13        -2.5379    5.4542   -9.7734 H         1 <0>         0.1067
     46 H14        -4.0001   -0.8126   -5.0410 H         1 <0>         0.0936
     47 H15        -3.2368    0.5305   -5.9251 H         1 <0>         0.1324
     48 H16        -1.8355   -1.3084   -7.2124 H         1 <0>         0.1103
     49 H17        -3.4260   -2.9630   -7.8839 H         1 <0>         0.1006
     50 H18        -4.5162   -2.4986   -6.4365 H         1 <0>         0.0982
     51 H19         3.3461   -5.4345    4.6192 H         1 <0>         0.1073
     52 H20         1.5709   -5.4272    4.4891 H         1 <0>         0.0619
     53 H21         2.5398   -6.4361    3.3884 H         1 <0>         0.0619
@<TRIPOS>BOND
     1    1    2 1
     2    1   33 1
     3    1   34 1
     4    1   35 1
     5    2    3 1
     6    2   36 1
     7    2   37 1
     8    3   11 1
     9    3    4 1
    10    4    9 ar
    11    4    5 ar
    12    5    6 ar
    13    5   38 1
    14    6    7 ar
    15    6   31 1
    16    7    8 ar
    17    7   39 1
    18    8    9 ar
    19    8   40 1
    20    9   10 1
    21   10   11 1
    22   11   12 2
    23   12   27 1
    24   12   13 1
    25   13   14 2
    26   13   15 am
    27   15   16 1
    28   15   28 1
    29   16   17 2
    30   16   27 1
    31   17   23 1
    32   17   18 1
    33   18   19 2
    34   18   20 am
    35   20   21 1
    36   20   24 1
    37   21   22 2
    38   21   23 1
    39   24   25 1
    40   24   41 1
    41   24   42 1
    42   25   26 2
    43   25   43 1
    44   26   44 1
    45   26   45 1
    46   28   29 1
    47   28   46 1
    48   28   47 1
    49   29   30 2
    50   29   48 1
    51   30   49 1
    52   30   50 1
    53   31   32 1
    54   32   51 1
    55   32   52 1
    56   32   53 1
@<TRIPOS>MOLECULE
ZINC03474367
   46    48     0     0     0
SMALL
USER_CHARGES
2,5-dioxabicyclo[4.4.0]deca-7,9,11-trien-8-ylcarbamoylcarbamoylmethyl 2-chloro-5-methylsulfanyl-benzoate
@<TRIPOS>ATOM
      1 C1          4.0528  -12.8505    0.8176 C.3       1 <0>        -0.1513
      2 S1          3.7520  -11.0666    0.6835 S.3       1 <0>        -0.0900
      3 C2          5.3665  -10.3608    0.6853 C.ar      1 <0>        -0.0974
      4 C3          6.4847  -11.1831    0.7782 C.ar      1 <0>        -0.0864
      5 C4          7.7530  -10.6355    0.7810 C.ar      1 <0>        -0.1003
      6 C5          7.9198   -9.2667    0.6911 C.ar      1 <0>         0.0115
      7 C6          6.8029   -8.4319    0.5970 C.ar      1 <0>        -0.1007
      8 C7          5.5217   -8.9860    0.5995 C.ar      1 <0>        -0.0284
      9 C8          6.9773   -6.9687    0.5013 C.2       1 <0>         0.5111
     10 O1          8.0932   -6.4885    0.5043 O.2       1 <0>        -0.4758
     11 O2          5.8990   -6.1663    0.4106 O.3       1 <0>        -0.3279
     12 C9          6.1457   -4.7383    0.3197 C.3       1 <0>         0.0548
     13 C10         4.8316   -4.0065    0.2263 C.2       1 <0>         0.5193
     14 O3          3.7901   -4.6271    0.2355 O.2       1 <0>        -0.4347
     15 N1          4.8141   -2.6621    0.1326 N.am      1 <0>        -0.6850
     16 C11         3.6389   -2.0076    0.0491 C.2       1 <0>         0.6980
     17 O4          2.5948   -2.6298    0.0583 O.2       1 <0>        -0.5044
     18 N2          3.6215   -0.6632   -0.0446 N.am      1 <0>        -0.6732
     19 C12         2.4012    0.0251   -0.0192 C.ar      1 <0>         0.1630
     20 C13         1.3459   -0.4600    0.7414 C.ar      1 <0>        -0.1122
     21 C14         0.1425    0.2177    0.7660 C.ar      1 <0>        -0.0903
     22 C15        -0.0157    1.3840    0.0321 C.ar      1 <0>         0.0390
     23 C16         1.0399    1.8735   -0.7282 C.ar      1 <0>         0.0709
     24 C17         2.2471    1.1921   -0.7538 C.ar      1 <0>        -0.1375
     25 O5          0.9064    3.0210   -1.4481 O.3       1 <0>        -0.3062
     26 C18        -0.4289    3.4740   -1.6961 C.3       1 <0>         0.0206
     27 C19        -1.2150    3.3962   -0.3803 C.3       1 <0>         0.0198
     28 O6         -1.2122    2.0342    0.0624 O.3       1 <0>        -0.3057
     29 Cl1         9.5161   -8.5844    0.6945 Cl        1 <0>        -0.0241
     30 H1          4.6476  -13.1836   -0.0329 H         1 <0>         0.0872
     31 H2          4.5914  -13.0597    1.7419 H         1 <0>         0.0872
     32 H3          3.1001  -13.3801    0.8245 H         1 <0>         0.1147
     33 H4          6.3609  -12.2537    0.8487 H         1 <0>         0.1412
     34 H5          8.6170  -11.2793    0.8540 H         1 <0>         0.1493
     35 H6          4.6545   -8.3460    0.5311 H         1 <0>         0.1567
     36 H7          6.7423   -4.5285   -0.5680 H         1 <0>         0.1136
     37 H8          6.6846   -4.4055    1.2068 H         1 <0>         0.1138
     38 H9          5.6474   -2.1656    0.1253 H         1 <0>         0.4146
     39 H10         4.4537   -0.1721   -0.1296 H         1 <0>         0.4116
     40 H11         1.4658   -1.3679    1.3139 H         1 <0>         0.1461
     41 H12        -0.6774   -0.1616    1.3579 H         1 <0>         0.1414
     42 H13         3.0677    1.5697   -1.3458 H         1 <0>         0.1398
     43 H14        -0.4075    4.5043   -2.0512 H         1 <0>         0.1242
     44 H15        -0.9000    2.8370   -2.4446 H         1 <0>         0.0796
     45 H16        -0.7402    4.0289    0.3695 H         1 <0>         0.0788
     46 H17        -2.2406    3.7267   -0.5448 H         1 <0>         0.1237
@<TRIPOS>BOND
     1    1    2 1
     2    1   30 1
     3    1   31 1
     4    1   32 1
     5    2    3 1
     6    3    8 ar
     7    3    4 ar
     8    4    5 ar
     9    4   33 1
    10    5    6 ar
    11    5   34 1
    12    6    7 ar
    13    6   29 1
    14    7    8 ar
    15    7    9 1
    16    8   35 1
    17    9   10 2
    18    9   11 1
    19   11   12 1
    20   12   13 1
    21   12   36 1
    22   12   37 1
    23   13   14 2
    24   13   15 am
    25   15   16 am
    26   15   38 1
    27   16   17 2
    28   16   18 am
    29   18   19 1
    30   18   39 1
    31   19   24 ar
    32   19   20 ar
    33   20   21 ar
    34   20   40 1
    35   21   22 ar
    36   21   41 1
    37   22   28 1
    38   22   23 ar
    39   23   24 ar
    40   23   25 1
    41   24   42 1
    42   25   26 1
    43   26   27 1
    44   26   43 1
    45   26   44 1
    46   27   28 1
    47   27   45 1
    48   27   46 1
@<TRIPOS>MOLECULE
ZINC10393141
   58    61     0     0     0
SMALL
USER_CHARGES
2-[1-(2,4-dimethylphenyl)imidazol-2-yl]sulfanyl-N-(8-methyl-1,3-dioxo-2,4-diazaspiro[4.5]decan-2-yl)acetamide
@<TRIPOS>ATOM
      1 C1         -8.7232    6.4394    0.1080 C.3       1 <0>        -0.1197
      2 C2         -8.1444    5.0481    0.0912 C.ar      1 <0>        -0.0633
      3 C3         -8.3379    4.2069    1.1718 C.ar      1 <0>        -0.1168
      4 C4         -7.8083    2.9316    1.1594 C.ar      1 <0>        -0.0917
      5 C5         -7.0809    2.4940    0.0606 C.ar      1 <0>         0.0879
      6 C6         -6.8835    3.3425   -1.0201 C.ar      1 <0>        -0.0557
      7 C7         -7.4206    4.6152   -1.0044 C.ar      1 <0>        -0.1115
      8 C8         -6.0894    2.8735   -2.2120 C.3       1 <0>        -0.1312
      9 N1         -6.5421    1.1998    0.0451 N.pl3     1 <0>        -0.3935
     10 C9         -7.2493    0.0164    0.0376 C.2       1 <0>        -0.0336
     11 C10        -6.3467   -0.9793    0.0279 C.2       1 <0>        -0.0136
     12 N2         -5.1171   -0.4373    0.0244 N.2       1 <0>        -0.4852
     13 C11        -5.2184    0.8715    0.0315 C.2       1 <0>         0.1760
     14 S1         -3.8736    2.0100    0.0313 S.3       1 <0>         0.0817
     15 C12        -2.4820    0.8526    0.0185 C.3       1 <0>        -0.1390
     16 C13        -1.1873    1.6238    0.0165 C.2       1 <0>         0.5424
     17 O1         -1.2037    2.8365    0.0232 O.2       1 <0>        -0.4955
     18 N3         -0.0111    0.9658    0.0074 N.am      1 <0>        -0.4998
     19 N4          1.1926    1.6828   -0.0003 N.am      1 <0>        -0.3768
     20 C14         2.0020    1.8169    1.0706 C.2       1 <0>         0.5328
     21 O2          1.8336    1.3578    2.1800 O.2       1 <0>        -0.4448
     22 C15         3.1637    2.6594    0.5956 C.3       1 <0>         0.1398
     23 C16         4.4690    1.8806    0.7161 C.3       1 <0>        -0.1159
     24 C17         5.6281    2.7395    0.2043 C.3       1 <0>        -0.1122
     25 C18         5.7065    4.0289    1.0244 C.3       1 <0>        -0.0978
     26 C19         4.3998    4.8105    0.8737 C.3       1 <0>        -0.1119
     27 C20         3.2357    3.9600    1.3881 C.3       1 <0>        -0.1169
     28 C21         6.8723    4.8828    0.5217 C.3       1 <0>        -0.1491
     29 N5          2.8542    2.9312   -0.8138 N.am      1 <0>        -0.7065
     30 C22         1.6849    2.3149   -1.0727 C.2       1 <0>         0.7071
     31 O3          1.1368    2.3333   -2.1573 O.2       1 <0>        -0.5219
     32 H1         -7.9992    7.1288    0.5423 H         1 <0>         0.0770
     33 H2         -8.9539    6.7493   -0.9112 H         1 <0>         0.0709
     34 H3         -9.6350    6.4463    0.7052 H         1 <0>         0.0708
     35 H4         -8.9040    4.5477    2.0261 H         1 <0>         0.1336
     36 H5         -7.9600    2.2751    2.0034 H         1 <0>         0.1305
     37 H6         -7.2708    5.2743   -1.8467 H         1 <0>         0.1344
     38 H7         -6.7594    2.4070   -2.9342 H         1 <0>         0.0743
     39 H8         -5.5922    3.7257   -2.6753 H         1 <0>         0.0784
     40 H9         -5.3424    2.1487   -1.8885 H         1 <0>         0.0787
     41 H10        -8.3240   -0.0902    0.0425 H         1 <0>         0.1802
     42 H11        -6.5715   -2.0356    0.0237 H         1 <0>         0.1784
     43 H12        -2.5355    0.2301   -0.8747 H         1 <0>         0.1361
     44 H13        -2.5271    0.2204    0.9052 H         1 <0>         0.1351
     45 H14         0.0021   -0.0041    0.0020 H         1 <0>         0.4315
     46 H15         4.6423    1.6221    1.7607 H         1 <0>         0.0938
     47 H16         4.4035    0.9685    0.1228 H         1 <0>         0.0779
     48 H17         5.4628    2.9854   -0.8446 H         1 <0>         0.0668
     49 H18         6.5623    2.1871    0.3053 H         1 <0>         0.0780
     50 H19         5.8633    3.7825    2.0746 H         1 <0>         0.0777
     51 H20         4.2386    5.0498   -0.1774 H         1 <0>         0.0667
     52 H21         4.4593    5.7328    1.4516 H         1 <0>         0.0780
     53 H22         2.3027    4.5106    1.2674 H         1 <0>         0.0794
     54 H23         3.3896    3.7341    2.4432 H         1 <0>         0.0931
     55 H24         6.9286    5.8011    1.1063 H         1 <0>         0.0574
     56 H25         7.8032    4.3261    0.6290 H         1 <0>         0.0573
     57 H26         6.7155    5.1296   -0.5283 H         1 <0>         0.0556
     58 H27         3.3884    3.4487   -1.4365 H         1 <0>         0.4443
@<TRIPOS>BOND
     1    1    2 1
     2    1   32 1
     3    1   33 1
     4    1   34 1
     5    2    7 ar
     6    2    3 ar
     7    3    4 ar
     8    3   35 1
     9    4    5 ar
    10    4   36 1
    11    5    6 ar
    12    5    9 1
    13    6    7 ar
    14    6    8 1
    15    7   37 1
    16    8   38 1
    17    8   39 1
    18    8   40 1
    19    9   13 1
    20    9   10 1
    21   10   11 2
    22   10   41 1
    23   11   12 1
    24   11   42 1
    25   12   13 2
    26   13   14 1
    27   14   15 1
    28   15   16 1
    29   15   43 1
    30   15   44 1
    31   16   17 2
    32   16   18 am
    33   18   19 1
    34   18   45 1
    35   19   30 am
    36   19   20 am
    37   20   21 2
    38   20   22 1
    39   22   27 1
    40   22   23 1
    41   22   29 1
    42   23   24 1
    43   23   46 1
    44   23   47 1
    45   24   25 1
    46   24   48 1
    47   24   49 1
    48   25   26 1
    49   25   28 1
    50   25   50 1
    51   26   27 1
    52   26   51 1
    53   26   52 1
    54   27   53 1
    55   27   54 1
    56   28   55 1
    57   28   56 1
    58   28   57 1
    59   29   30 am
    60   29   58 1
    61   30   31 2
@<TRIPOS>MOLECULE
ZINC24876894
   48    51     0     0     0
SMALL
USER_CHARGES
[(1S)-1-methyl-2-oxo-2-(9H-purin-6-ylamino)ethyl] 4-(1,3-dithian-2-yl)benzoate
@<TRIPOS>ATOM
      1 C1          2.7889    0.8615   -1.4625 C.3       1 <0>        -0.1689
      2 C2          2.3712    1.1257   -0.0145 C.3       1 <0>         0.0745
      3 H1          2.1676    0.1862    0.5201 H         1 <0>         0.1197
      4 C3          3.4590    1.8950    0.6897 C.2       1 <0>         0.5106
      5 O1          3.2224    2.9880    1.1587 O.2       1 <0>        -0.4313
      6 N1          4.6949    1.3683    0.7982 N.am      1 <0>        -0.6671
      7 C4          5.6974    2.0774    1.4472 C.ar      1 <0>         0.4578
      8 C5          6.9906    1.5440    1.5695 C.ar      1 <0>        -0.1276
      9 C6          7.9664    2.3130    2.2279 C.ar      1 <0>         0.3100
     10 N2          9.1181    1.5681    2.1983 N.2       1 <0>        -0.4910
     11 H2          7.0078   -0.3724    0.6411 H         1 <0>         0.4542
     12 C7          8.8305    0.3961    1.5647 C.2       1 <0>         0.3010
     13 N3          7.5853    0.3890    1.1860 N.pl3     1 <0>        -0.5368
     14 N4          7.6311    3.5039    2.7119 N.ar      1 <0>        -0.5047
     15 C8          6.4036    3.9604    2.5790 C.ar      1 <0>         0.3557
     16 N5          5.4572    3.2788    1.9597 N.ar      1 <0>        -0.5162
     17 O2          1.1429    1.8999    0.0013 O.3       1 <0>        -0.3245
     18 C9         -0.0144    1.2105    0.0087 C.2       1 <0>         0.5157
     19 O3          0.0021   -0.0041    0.0020 O.2       1 <0>        -0.5010
     20 C10        -1.3036    1.9317    0.0187 C.ar      1 <0>        -0.1166
     21 C11        -1.3262    3.3277    0.0322 C.ar      1 <0>        -0.0559
     22 C12        -2.5336    3.9948    0.0357 C.ar      1 <0>        -0.0976
     23 C13        -3.7205    3.2836    0.0370 C.ar      1 <0>        -0.0339
     24 C14        -3.7054    1.9000    0.0299 C.ar      1 <0>        -0.1069
     25 C15        -2.5051    1.2203    0.0206 C.ar      1 <0>        -0.0515
     26 C16        -5.0357    4.0193    0.0467 C.3       1 <0>        -0.0061
     27 S1         -5.1477    5.0850   -1.4201 S.3       1 <0>        -0.1989
     28 C17        -6.7101    5.9759   -1.1863 C.3       1 <0>        -0.1028
     29 C18        -6.6427    6.8259    0.0774 C.3       1 <0>        -0.1263
     30 C19        -6.7055    5.9510    1.3243 C.3       1 <0>        -0.1041
     31 S2         -5.1423    5.0557    1.5347 S.3       1 <0>        -0.1996
     32 H3          1.9949    0.3000   -1.9765 H         1 <0>         0.0832
     33 H4          3.7194    0.2750   -1.4745 H         1 <0>         0.0813
     34 H5          2.9527    1.8196   -1.9775 H         1 <0>         0.0800
     35 H6          4.9095    0.3769    0.3728 H         1 <0>         0.4384
     36 H7          9.5429   -0.2954    1.4448 H         1 <0>         0.2100
     37 H8          6.1615    4.8582    2.9468 H         1 <0>         0.1885
     38 H9         -0.4005    3.8840    0.0357 H         1 <0>         0.1467
     39 H10        -2.5525    5.0746    0.0416 H         1 <0>         0.1451
     40 H11        -4.6355    1.3511    0.0313 H         1 <0>         0.1374
     41 H12        -2.4947    0.1404    0.0143 H         1 <0>         0.1441
     42 H13        -5.7242    3.1614    0.0395 H         1 <0>         0.1198
     43 H14        -6.8927    6.6293   -2.0522 H         1 <0>         0.1195
     44 H15        -7.5339    5.2530   -1.0923 H         1 <0>         0.0869
     45 H16        -5.6993    7.3914    0.0890 H         1 <0>         0.0941
     46 H17        -7.4905    7.5266    0.0936 H         1 <0>         0.0892
     47 H18        -6.8818    6.5830    2.2072 H         1 <0>         0.1194
     48 H19        -7.5265    5.2260    1.2226 H         1 <0>         0.0866
@<TRIPOS>BOND
     1    1    2 1
     2    1   32 1
     3    1   33 1
     4    1   34 1
     5    2    3 1
     6    2    4 1
     7    2   17 1
     8    4    5 2
     9    4    6 am
    10    6   35 1
    11    6    7 1
    12    7   16 ar
    13    7    8 ar
    14    8    9 ar
    15    8   13 1
    16    9   10 1
    17    9   14 ar
    18   10   12 2
    19   11   13 1
    20   12   36 1
    21   12   13 1
    22   14   15 ar
    23   15   37 1
    24   15   16 ar
    25   17   18 1
    26   18   19 2
    27   18   20 1
    28   20   25 ar
    29   20   21 ar
    30   21   22 ar
    31   21   38 1
    32   22   23 ar
    33   22   39 1
    34   23   24 ar
    35   23   26 1
    36   24   25 ar
    37   24   40 1
    38   25   41 1
    39   26   31 1
    40   26   27 1
    41   26   42 1
    42   27   28 1
    43   28   29 1
    44   28   43 1
    45   28   44 1
    46   29   30 1
    47   29   45 1
    48   29   46 1
    49   30   31 1
    50   30   47 1
    51   30   48 1
@<TRIPOS>MOLECULE
ZINC22000760
   56    58     0     0     0
SMALL
USER_CHARGES

@<TRIPOS>ATOM
      1 C1          0.0663    1.5437   -0.0331 C.3       1 <0>        -0.1465
      2 C2          0.0786    0.0119   -0.0359 C.3       1 <0>        -0.0970
      3 H1          0.5816   -0.3403   -0.9326 H         1 <0>         0.0909
      4 C3         -1.3615   -0.5047   -0.0074 C.3       1 <0>        -0.1077
      5 C4         -1.3620   -2.0266   -0.0594 C.3       1 <0>         0.1397
      6 C5         -0.5074   -2.6530    1.0244 C.3       1 <0>        -0.1042
      7 C6          0.8540   -2.0142    1.2364 C.3       1 <0>        -0.0543
      8 C7          0.7988   -0.4911    1.2134 C.3       1 <0>        -0.1036
      9 C8          1.3725   -2.4448    2.6259 C.3       1 <0>        -0.1457
     10 C9          1.8584   -2.5194    0.1967 C.3       1 <0>        -0.1610
     11 C10        -0.9888   -2.5180   -1.4360 C.2       1 <0>         0.5387
     12 O1         -0.0046   -2.2444   -2.0893 O.2       1 <0>        -0.4457
     13 N1         -2.0012   -3.3232   -1.8253 N.am      1 <0>        -0.5710
     14 C11        -3.0094   -3.3020   -0.9468 C.2       1 <0>         0.7090
     15 O2         -4.0387   -3.9344   -1.0840 O.2       1 <0>        -0.5364
     16 N2         -2.7534   -2.5052    0.1048 N.am      1 <0>        -0.7212
     17 C12        -1.9926   -4.1182   -3.0553 C.3       1 <0>         0.1310
     18 C13        -1.3987   -5.4742   -2.7729 C.2       1 <0>         0.4549
     19 O3         -1.0214   -5.7482   -1.6583 O.2       1 <0>        -0.4906
     20 O4         -1.2889   -6.3775   -3.7597 O.3       1 <0>        -0.3224
     21 C14        -0.7166   -7.6423   -3.4207 C.3       1 <0>         0.0517
     22 C15        -0.6750   -8.5192   -4.6455 C.2       1 <0>         0.5201
     23 O5         -1.0941   -8.1022   -5.7046 O.2       1 <0>        -0.4871
     24 N3         -0.1719   -9.7670   -4.5642 N.am      1 <0>        -0.6659
     25 C16        -0.2182  -10.6146   -5.6779 C.ar      1 <0>         0.1440
     26 C17        -0.0766  -10.0920   -6.9559 C.ar      1 <0>        -0.1332
     27 C18        -0.1223  -10.9319   -8.0541 C.ar      1 <0>         0.1144
     28 C19        -0.3092  -12.2930   -7.8792 C.ar      1 <0>        -0.1366
     29 C20        -0.4510  -12.8163   -6.6075 C.ar      1 <0>        -0.1028
     30 C21        -0.4004  -11.9822   -5.5054 C.ar      1 <0>         0.0656
     31 F1         -0.5334  -12.4951   -4.2626 F         1 <0>        -0.1307
     32 F2          0.0150  -10.4240   -9.2985 F         1 <0>        -0.1278
     33 H2          1.0909    1.9153   -0.0474 H         1 <0>         0.0598
     34 H3         -0.4633    1.9044   -0.9149 H         1 <0>         0.0560
     35 H4         -0.4374    1.9014    0.8649 H         1 <0>         0.0558
     36 H5         -1.8486   -0.1707    0.9093 H         1 <0>         0.0884
     37 H6         -1.9041   -0.1110   -0.8678 H         1 <0>         0.0756
     38 H7         -1.0652   -2.6207    1.9731 H         1 <0>         0.0860
     39 H8         -0.3645   -3.7183    0.7848 H         1 <0>         0.0753
     40 H9          1.8153   -0.0896    1.2302 H         1 <0>         0.0704
     41 H10         0.2699   -0.1339    2.1014 H         1 <0>         0.0654
     42 H11         1.4568   -3.5309    2.6617 H         1 <0>         0.0555
     43 H12         2.3510   -1.9983    2.8030 H         1 <0>         0.0602
     44 H13         0.6756   -2.1089    3.3938 H         1 <0>         0.0555
     45 H14         1.5039   -2.2682   -0.8030 H         1 <0>         0.0784
     46 H15         2.8264   -2.0484    0.3679 H         1 <0>         0.0576
     47 H16         1.9599   -3.6010    0.2851 H         1 <0>         0.0510
     48 H17        -3.3501   -2.2796    0.8328 H         1 <0>         0.4420
     49 H18        -3.0135   -4.2371   -3.4183 H         1 <0>         0.1466
     50 H19        -1.3948   -3.6102   -3.8121 H         1 <0>         0.1460
     51 H20         0.2959   -7.4940   -3.0454 H         1 <0>         0.1086
     52 H21        -1.3228   -8.1209   -2.6516 H         1 <0>         0.1094
     53 H22         0.2222  -10.0778   -3.7341 H         1 <0>         0.4206
     54 H23         0.0688   -9.0306   -7.0927 H         1 <0>         0.1631
     55 H24        -0.3445  -12.9469   -8.7381 H         1 <0>         0.1505
     56 H25        -0.5972  -13.8780   -6.4742 H         1 <0>         0.1537
@<TRIPOS>BOND
     1    1    2 1
     2    1   33 1
     3    1   34 1
     4    1   35 1
     5    2    3 1
     6    2    8 1
     7    2    4 1
     8    4    5 1
     9    4   36 1
    10    4   37 1
    11    5   16 1
    12    5    6 1
    13    5   11 1
    14    6    7 1
    15    6   38 1
    16    6   39 1
    17    7    8 1
    18    7    9 1
    19    7   10 1
    20    8   40 1
    21    8   41 1
    22    9   42 1
    23    9   43 1
    24    9   44 1
    25   10   45 1
    26   10   46 1
    27   10   47 1
    28   11   12 2
    29   11   13 am
    30   13   14 am
    31   13   17 1
    32   14   15 2
    33   14   16 am
    34   16   48 1
    35   17   18 1
    36   17   49 1
    37   17   50 1
    38   18   19 2
    39   18   20 1
    40   20   21 1
    41   21   22 1
    42   21   51 1
    43   21   52 1
    44   22   23 2
    45   22   24 am
    46   24   25 1
    47   24   53 1
    48   25   30 ar
    49   25   26 ar
    50   26   27 ar
    51   26   54 1
    52   27   28 ar
    53   27   32 1
    54   28   29 ar
    55   28   55 1
    56   29   30 ar
    57   29   56 1
    58   30   31 1
@<TRIPOS>MOLECULE
ZINC58835061
   50    52     0     0     0
SMALL
USER_CHARGES

@<TRIPOS>ATOM
      1 C1         -0.0184    1.5028    0.0103 C.3       1 <0>        -0.1277
      2 C2          0.0021   -0.0041    0.0020 C.ar      1 <0>         0.0314
      3 C3          0.0061   -0.7066   -1.1907 C.ar      1 <0>        -0.1830
      4 C4          0.0250   -2.0894   -1.1671 C.ar      1 <0>         0.1802
      5 N1          0.0392   -2.7538   -0.0278 N.ar      1 <0>        -0.4954
      6 C5          0.0362   -2.1326    1.1418 C.ar      1 <0>         0.1710
      7 C6          0.0233   -0.7272    1.1997 C.ar      1 <0>        -0.0733
      8 C7          0.0260   -0.0492    2.4610 C.1       1 <0>         0.2508
      9 N2          0.0282    0.4886    3.4616 N.1       1 <0>        -0.3900
     10 S1          0.0552   -3.0712    2.6329 S.3       1 <0>        -0.0102
     11 C8          0.0755   -4.7944    2.0665 C.3       1 <0>        -0.0137
     12 C9          0.0929   -5.7151    3.2594 C.2       1 <0>         0.2198
     13 N3          1.1530   -6.1692    3.8706 N.2       1 <0>        -0.2567
     14 N4          0.7983   -6.9279    4.8464 N.2       1 <0>        -0.2455
     15 C10        -0.5041   -6.9923    4.9021 C.2       1 <0>         0.1509
     16 N5         -0.9890   -6.2201    3.8999 N.pl3     1 <0>        -0.2986
     17 N6         -2.3020   -5.9982    3.5952 N.3       1 <0>        -0.5854
     18 C11        -1.3178   -7.7758    5.8997 C.3       1 <0>        -0.0216
     19 S2         -1.6670   -6.7363    7.3447 S.3       1 <0>        -0.0168
     20 C12        -2.6118   -7.7812    8.4031 C.ar      1 <0>         0.1674
     21 C13        -3.0710   -7.2933    9.6399 C.ar      1 <0>        -0.0690
     22 C14        -3.8197   -8.1420   10.4626 C.ar      1 <0>         0.0315
     23 C15        -4.0760   -9.4285   10.0208 C.ar      1 <0>        -0.1792
     24 C16        -3.5906   -9.8364    8.7916 C.ar      1 <0>         0.1797
     25 N7         -2.8907   -9.0203    8.0277 N.ar      1 <0>        -0.4958
     26 C17        -3.8710  -11.2379    8.3139 C.3       1 <0>        -0.1112
     27 C18        -4.3341   -7.6672   11.7972 C.3       1 <0>        -0.1284
     28 C19        -2.7772   -5.9530   10.0496 C.1       1 <0>         0.2476
     29 N8         -2.5441   -4.8897   10.3746 N.1       1 <0>        -0.3853
     30 C20         0.0288   -2.8512   -2.4673 C.3       1 <0>        -0.1106
     31 H1          1.0042    1.8801    0.0026 H         1 <0>         0.0902
     32 H2         -0.5455    1.8639   -0.8728 H         1 <0>         0.0866
     33 H3         -0.5286    1.8543    0.9071 H         1 <0>         0.0743
     34 H4         -0.0058   -0.1789   -2.1329 H         1 <0>         0.1500
     35 H5         -0.8147   -4.9909    1.4688 H         1 <0>         0.1215
     36 H6          0.9651   -4.9674    1.4610 H         1 <0>         0.1316
     37 H7         -2.6420   -6.6853    2.9392 H         1 <0>         0.3699
     38 H8         -2.8692   -5.9831    4.4295 H         1 <0>         0.3811
     39 H9         -2.2561   -8.0857    5.4397 H         1 <0>         0.1112
     40 H10        -0.7581   -8.6571    6.2128 H         1 <0>         0.1385
     41 H11        -4.6506  -10.1090   10.6317 H         1 <0>         0.1515
     42 H12        -4.8031  -11.2496    7.7490 H         1 <0>         0.0872
     43 H13        -3.0546  -11.5741    7.6747 H         1 <0>         0.0828
     44 H14        -3.9581  -11.9038    9.1725 H         1 <0>         0.0845
     45 H15        -5.3225   -7.2258   11.6694 H         1 <0>         0.0906
     46 H16        -4.3993   -8.5119   12.4829 H         1 <0>         0.0877
     47 H17        -3.6526   -6.9203   12.2044 H         1 <0>         0.0753
     48 H18         1.0573   -3.0209   -2.7860 H         1 <0>         0.0877
     49 H19        -0.4714   -3.8096   -2.3284 H         1 <0>         0.0819
     50 H20        -0.4967   -2.2740   -3.2281 H         1 <0>         0.0830
@<TRIPOS>BOND
     1    1    2 1
     2    1   31 1
     3    1   32 1
     4    1   33 1
     5    2    7 ar
     6    2    3 ar
     7    3    4 ar
     8    3   34 1
     9    4    5 ar
    10    4   30 1
    11    5    6 ar
    12    6    7 ar
    13    6   10 1
    14    7    8 1
    15    8    9 3
    16   10   11 1
    17   11   12 1
    18   11   35 1
    19   11   36 1
    20   12   16 1
    21   12   13 2
    22   13   14 1
    23   14   15 2
    24   15   16 1
    25   15   18 1
    26   16   17 1
    27   17   37 1
    28   17   38 1
    29   18   19 1
    30   18   39 1
    31   18   40 1
    32   19   20 1
    33   20   25 ar
    34   20   21 ar
    35   21   22 ar
    36   21   28 1
    37   22   23 ar
    38   22   27 1
    39   23   24 ar
    40   23   41 1
    41   24   25 ar
    42   24   26 1
    43   26   42 1
    44   26   43 1
    45   26   44 1
    46   27   45 1
    47   27   46 1
    48   27   47 1
    49   28   29 3
    50   30   48 1
    51   30   49 1
    52   30   50 1
@<TRIPOS>MOLECULE
ZINC09003939
   61    65     0     0     0
SMALL
USER_CHARGES
N-(1,1-dioxothiolan-3-yl)-N-methyl-2-(oxo-phenethyl-BLAHyl)sulfanyl-acetamide
@<TRIPOS>ATOM
      1 C1         -0.9019    3.0177   -1.3761 C.3       1 <0>         0.0603
      2 N1         -0.7338    1.5772   -1.1687 N.am      1 <0>        -0.5953
      3 C2         -0.0127    1.0858    0.0080 C.3       1 <0>         0.1356
      4 H1          0.0021   -0.0041    0.0020 H         1 <0>         0.1295
      5 C3          1.4274    1.6248   -0.0028 C.3       1 <0>        -0.1374
      6 C4          2.0914    1.3840    1.3744 C.3       1 <0>        -0.5751
      7 S1          0.6547    1.3935    2.5225 S.o2      1 <0>         2.3752
      8 O1          0.5433    0.1157    3.1342 O.2       1 <0>        -0.9264
      9 O2          0.7220    2.5555    3.3377 O.2       1 <0>        -0.9301
     10 C5         -0.7105    1.5946    1.3016 C.3       1 <0>        -0.5991
     11 C6         -1.2426    0.7041   -2.0605 C.2       1 <0>         0.5366
     12 O3         -1.1034   -0.4884   -1.8889 O.2       1 <0>        -0.5161
     13 C7         -1.9844    1.2096   -3.2710 C.3       1 <0>        -0.1568
     14 S2         -2.5403   -0.1950   -4.2681 S.3       1 <0>         0.1066
     15 C8         -3.3518    0.6610   -5.5770 C.2       1 <0>         0.3576
     16 N2         -3.3863    1.9785   -5.5681 N.2       1 <0>        -0.5002
     17 C9         -3.9918    2.6478   -6.5429 C.2       1 <0>         0.1125
     18 C10        -4.6159    1.9980   -7.6173 C.2       1 <0>        -0.2389
     19 C11        -5.2442    2.8709   -8.6229 C.2       1 <0>        -0.0691
     20 C12        -5.1616    4.1946   -8.4144 C.2       1 <0>        -0.1975
     21 S3         -4.2558    4.3660   -6.8939 S.3       1 <0>         0.1814
     22 C13        -5.8408    4.9846   -9.5009 C.3       1 <0>        -0.0322
     23 C14        -6.7484    3.9594  -10.2156 C.3       1 <0>        -0.1174
     24 C15        -6.0141    2.6357   -9.9255 C.3       1 <0>        -0.0630
     25 C16        -4.5639    0.5688   -7.6025 C.2       1 <0>         0.5583
     26 O4         -5.0808   -0.0788   -8.4967 O.2       1 <0>        -0.5117
     27 N3         -3.9306   -0.0497   -6.5882 N.am      1 <0>        -0.5096
     28 C17        -3.8668   -1.5132   -6.5664 C.3       1 <0>         0.0902
     29 C18        -5.0827   -2.0656   -5.8199 C.3       1 <0>        -0.0931
     30 C19        -5.0171   -3.5710   -5.7974 C.ar      1 <0>        -0.0869
     31 C20        -5.6039   -4.3036   -6.8121 C.ar      1 <0>        -0.1103
     32 C21        -5.5395   -5.6844   -6.7940 C.ar      1 <0>        -0.1182
     33 C22        -4.8974   -6.3327   -5.7557 C.ar      1 <0>        -0.1181
     34 C23        -4.3151   -5.6002   -4.7382 C.ar      1 <0>        -0.1176
     35 C24        -4.3750   -4.2194   -4.7590 C.ar      1 <0>        -0.1113
     36 H2         -0.0628    3.4016   -1.9562 H         1 <0>         0.0703
     37 H3         -1.8309    3.2011   -1.9159 H         1 <0>         0.0842
     38 H4         -0.9371    3.5221   -0.4105 H         1 <0>         0.0828
     39 H5          2.0001    1.1116   -0.7753 H         1 <0>         0.1028
     40 H6          1.4120    2.6940   -0.2142 H         1 <0>         0.0928
     41 H7          2.5971    0.4187    1.3961 H         1 <0>         0.1444
     42 H8          2.7842    2.1902    1.6156 H         1 <0>         0.1470
     43 H9         -1.0033    2.6402    1.2064 H         1 <0>         0.1453
     44 H10        -1.5656    0.9700    1.5600 H         1 <0>         0.1483
     45 H11        -2.8481    1.7923   -2.9507 H         1 <0>         0.1360
     46 H12        -1.3225    1.8385   -3.8664 H         1 <0>         0.1358
     47 H13        -6.4394    5.7873   -9.0701 H         1 <0>         0.0825
     48 H14        -5.1037    5.3889  -10.1947 H         1 <0>         0.0884
     49 H15        -7.7483    3.9542   -9.7818 H         1 <0>         0.0780
     50 H16        -6.7905    4.1556  -11.2870 H         1 <0>         0.0866
     51 H17        -6.7327    1.8261   -9.7978 H         1 <0>         0.0799
     52 H18        -5.3238    2.4020  -10.7361 H         1 <0>         0.0827
     53 H19        -3.8649   -1.8921   -7.5884 H         1 <0>         0.1130
     54 H20        -2.9549   -1.8296   -6.0599 H         1 <0>         0.1018
     55 H21        -5.0846   -1.6866   -4.7978 H         1 <0>         0.0831
     56 H22        -5.9946   -1.7492   -6.3263 H         1 <0>         0.0833
     57 H23        -6.1095   -3.7972   -7.6210 H         1 <0>         0.1232
     58 H24        -5.9948   -6.2566   -7.5887 H         1 <0>         0.1233
     59 H25        -4.8510   -7.4116   -5.7392 H         1 <0>         0.1226
     60 H26        -3.8137   -6.1068   -3.9268 H         1 <0>         0.1243
     61 H27        -3.9203   -3.6471   -3.9639 H         1 <0>         0.1252
@<TRIPOS>BOND
     1    1    2 1
     2    1   36 1
     3    1   37 1
     4    1   38 1
     5    2    3 1
     6    2   11 am
     7    3    4 1
     8    3   10 1
     9    3    5 1
    10    5    6 1
    11    5   39 1
    12    5   40 1
    13    6    7 1
    14    6   41 1
    15    6   42 1
    16    7    8 2
    17    7    9 2
    18    7   10 1
    19   10   43 1
    20   10   44 1
    21   11   12 2
    22   11   13 1
    23   13   14 1
    24   13   45 1
    25   13   46 1
    26   14   15 1
    27   15   27 1
    28   15   16 2
    29   16   17 1
    30   17   21 1
    31   17   18 2
    32   18   19 1
    33   18   25 1
    34   19   24 1
    35   19   20 2
    36   20   21 1
    37   20   22 1
    38   22   23 1
    39   22   47 1
    40   22   48 1
    41   23   24 1
    42   23   49 1
    43   23   50 1
    44   24   51 1
    45   24   52 1
    46   25   26 2
    47   25   27 am
    48   27   28 1
    49   28   29 1
    50   28   53 1
    51   28   54 1
    52   29   30 1
    53   29   55 1
    54   29   56 1
    55   30   35 ar
    56   30   31 ar
    57   31   32 ar
    58   31   57 1
    59   32   33 ar
    60   32   58 1
    61   33   34 ar
    62   33   59 1
    63   34   35 ar
    64   34   60 1
    65   35   61 1
@<TRIPOS>MOLECULE
ZINC21981267
   65    69     0     0     0
SMALL
USER_CHARGES
[(8R,9R,10S,11S,13S,14S,16S,17R)-9-chloro-17-(2-chloroacetyl)-11-hydroxy-10,13,16-trimethyl-3-oxo-6,7,8,11,12,14,15,16-octahydrocyclopenta[a]phenanthren-17-yl] 3,4,5-trideuteriofuran-2-carboxylate
@<TRIPOS>ATOM
      1 H1         -9.7483    2.4497    2.0560 H         1 <0>         0.1637
      2 C1         -8.9379    1.7986    1.7633 C.2       1 <0>        -0.2281
      3 C2         -8.6717    0.5187    2.2729 C.2       1 <0>        -0.0960
      4 C3         -7.5601    0.0608    1.6234 C.2       1 <0>        -0.0777
      5 O1         -7.1586    1.0163    0.7593 O.3       1 <0>        -0.1486
      6 C4         -7.9899    2.0633    0.8369 C.2       1 <0>         0.0159
      7 H2         -7.9127    2.9718    0.2580 H         1 <0>         0.2167
      8 C5         -6.9140   -1.2369    1.8329 C.2       1 <0>         0.5463
      9 O2         -7.3673   -2.0173    2.6482 O.2       1 <0>        -0.4750
     10 O3         -5.8162   -1.5664    1.1217 O.3       1 <0>        -0.3210
     11 C6         -5.1889   -2.8352    1.4305 C.3       1 <0>         0.0936
     12 C7         -4.7574   -2.8821    2.9182 C.3       1 <0>        -0.0958
     13 H3         -5.1700   -2.0331    3.4830 H         1 <0>         0.0876
     14 C8         -3.2002   -2.8825    2.9213 C.3       1 <0>        -0.1036
     15 C9         -2.8993   -2.2342    1.5656 C.3       1 <0>        -0.0954
     16 H4         -3.0002   -1.1406    1.6283 H         1 <0>         0.0963
     17 C10        -3.8748   -2.9827    0.6369 C.3       1 <0>        -0.0122
     18 C11        -3.8642   -2.3390   -0.7268 C.3       1 <0>        -0.0976
     19 C12        -2.4296   -2.2750   -1.2849 C.3       1 <0>         0.1351
     20 H5         -2.3830   -1.7350   -2.2421 H         1 <0>         0.0648
     21 C13        -1.4806   -1.5576   -0.3416 C.3       1 <0>         0.0399
     22 C14        -1.4976   -2.1957    1.0607 C.3       1 <0>        -0.0774
     23 H6         -0.9686   -1.5986    1.8180 H         1 <0>         0.0822
     24 C15        -0.7601   -3.5258    1.0316 C.3       1 <0>        -0.1365
     25 C16         0.7351   -3.1979    0.9367 C.3       1 <0>        -0.0917
     26 C17         0.9832   -2.2066   -0.1684 C.2       1 <0>        -0.0320
     27 C18         2.2715   -2.0275   -0.5253 C.2       1 <0>        -0.2325
     28 C19         2.6209   -0.7815   -1.2469 C.2       1 <0>         0.4039
     29 O4          3.6812   -0.6653   -1.8487 O.2       1 <0>        -0.4517
     30 C20         1.6466    0.3316   -1.1785 C.2       1 <0>        -0.2197
     31 C21         0.3531    0.0533   -0.9470 C.2       1 <0>        -0.0904
     32 C22        -0.0709   -1.3895   -0.8351 C.3       1 <0>        -0.0075
     33 C23        -0.0324   -1.8551   -2.2960 C.3       1 <0>        -0.1717
     34 Cl1        -2.1655    0.1117   -0.1204 Cl        1 <0>        -0.1668
     35 O5         -2.0009   -3.5871   -1.6187 O.3       1 <0>        -0.5773
     36 C24        -3.5829   -4.4798    0.5387 C.3       1 <0>        -0.1642
     37 C25        -5.2933   -4.1421    3.5955 C.3       1 <0>        -0.1666
     38 C26        -6.1102   -3.9800    1.1097 C.2       1 <0>         0.3466
     39 O6         -5.8209   -5.1017    1.4509 O.2       1 <0>        -0.3894
     40 C27        -7.3943   -3.7272    0.3627 C.3       1 <0>        -0.1053
     41 Cl2        -8.3318   -5.2627    0.2422 Cl        1 <0>        -0.1353
     42 H7         -9.2357   -0.0032    3.0317 H         1 <0>         0.1663
     43 H8         -2.8351   -2.2959    3.7772 H         1 <0>         0.0767
     44 H9         -2.8339   -3.9165    3.0025 H         1 <0>         0.0846
     45 H10        -4.4884   -2.9278   -1.4150 H         1 <0>         0.0820
     46 H11        -4.2638   -1.3168   -0.6529 H         1 <0>         0.1015
     47 H12        -0.9802   -4.0873    1.9515 H         1 <0>         0.0830
     48 H13        -1.0893   -4.1086    0.1587 H         1 <0>         0.1008
     49 H14         1.0771   -2.7669    1.8892 H         1 <0>         0.0921
     50 H15         1.2998   -4.1183    0.7270 H         1 <0>         0.0892
     51 H16         3.0219   -2.7932   -0.2792 H         1 <0>         0.1521
     52 H17         1.9691    1.3745   -1.3142 H         1 <0>         0.1478
     53 H18        -0.3753    0.8710   -0.8426 H         1 <0>         0.1627
     54 H19         0.9890   -1.7449   -2.6892 H         1 <0>         0.0757
     55 H20        -0.7236   -1.2432   -2.8942 H         1 <0>         0.0813
     56 H21        -0.3350   -2.9112   -2.3523 H         1 <0>         0.0835
     57 H22        -0.9957   -3.7479   -2.0355 H         1 <0>         0.4016
     58 H23        -2.6496   -4.6353   -0.0223 H         1 <0>         0.1009
     59 H24        -4.4117   -4.9816    0.0178 H         1 <0>         0.0627
     60 H25        -3.4774   -4.8999    1.5498 H         1 <0>         0.0694
     61 H26        -4.9761   -4.1554    4.6487 H         1 <0>         0.0592
     62 H27        -4.8977   -5.0309    3.0821 H         1 <0>         0.0888
     63 H28        -6.3921   -4.1473    3.5434 H         1 <0>         0.0623
     64 H29        -7.9898   -2.9753    0.9012 H         1 <0>         0.1235
     65 H30        -7.1642   -3.3578   -0.6476 H         1 <0>         0.1269
@<TRIPOS>BOND
     1    1    2 1
     2    2    6 2
     3    2    3 1
     4    3    4 2
     5    3   42 1
     6    4    5 1
     7    4    8 1
     8    5    6 1
     9    6    7 1
    10    8    9 2
    11    8   10 1
    12   10   11 1
    13   11   17 1
    14   11   12 1
    15   11   38 1
    16   12   13 1
    17   12   14 1
    18   12   37 1
    19   14   15 1
    20   14   43 1
    21   14   44 1
    22   15   16 1
    23   15   22 1
    24   15   17 1
    25   17   18 1
    26   17   36 1
    27   18   19 1
    28   18   45 1
    29   18   46 1
    30   19   20 1
    31   19   21 1
    32   19   35 1
    33   21   32 1
    34   21   22 1
    35   21   34 1
    36   22   23 1
    37   22   24 1
    38   24   25 1
    39   24   47 1
    40   24   48 1
    41   25   26 1
    42   25   49 1
    43   25   50 1
    44   26   32 1
    45   26   27 2
    46   27   28 1
    47   27   51 1
    48   28   29 2
    49   28   30 1
    50   30   31 2
    51   30   52 1
    52   31   32 1
    53   31   53 1
    54   32   33 1
    55   33   54 1
    56   33   55 1
    57   33   56 1
    58   35   57 1
    59   36   58 1
    60   36   59 1
    61   36   60 1
    62   37   61 1
    63   37   62 1
    64   37   63 1
    65   38   39 2
    66   38   40 1
    67   40   41 1
    68   40   64 1
    69   40   65 1
@<TRIPOS>MOLECULE
ZINC35173894
   60    64     0     0     0
SMALL
USER_CHARGES

@<TRIPOS>ATOM
      1 C1         -0.0187    1.5258    0.0104 C.3       1 <0>        -0.1574
      2 C2          0.0021   -0.0041    0.0020 C.3       1 <0>         0.1242
      3 H1          0.5119   -0.3581   -0.8940 H         1 <0>         0.1147
      4 C3         -1.4354   -0.5385    0.0215 C.3       1 <0>         0.1051
      5 N1         -2.0186   -0.2694    1.3433 N.am      1 <0>        -0.6041
      6 C4         -1.3190   -0.7598    2.5392 C.3       1 <0>         0.0867
      7 C5          0.1184   -0.2254    2.5198 C.3       1 <0>         0.0884
      8 N2          0.7052   -0.4944    1.1958 N.am      1 <0>        -0.6120
      9 C6          1.8603   -1.1789    1.0787 C.2       1 <0>         0.5191
     10 O1          2.3284   -1.3953   -0.0190 O.2       1 <0>        -0.5184
     11 C7          2.5701   -1.6755    2.3118 C.3       1 <0>        -0.0554
     12 C8          3.8264   -2.4040    1.9092 C.2       1 <0>        -0.1339
     13 C9          5.0792   -1.9153    1.7389 C.2       1 <0>        -0.1425
     14 C10         6.0904   -2.7794    1.3628 C.2       1 <0>        -0.1567
     15 C11         5.7993   -4.0899    1.1752 C.2       1 <0>        -0.1706
     16 S1          4.0524   -4.1361    1.5402 S.3       1 <0>         0.0466
     17 C12        -3.1740    0.4151    1.4569 C.2       1 <0>         0.5405
     18 O2         -3.7420    0.8152    0.4629 O.2       1 <0>        -0.5161
     19 C13        -3.7600    0.6834    2.8191 C.3       1 <0>        -0.1517
     20 S2         -5.3042    1.6183    2.6396 S.3       1 <0>         0.0942
     21 C14        -5.8577    1.8493    4.2963 C.2       1 <0>         0.1573
     22 N3         -5.2546    1.4293    5.3850 N.2       1 <0>        -0.2868
     23 N4         -5.9291    1.7677    6.4249 N.2       1 <0>        -0.2532
     24 C15        -7.0088    2.4272    6.0662 C.2       1 <0>         0.2786
     25 N5         -6.9940    2.5055    4.6892 N.pl3     1 <0>        -0.4110
     26 C16        -7.9440    3.1240    3.8648 C.ar      1 <0>         0.0915
     27 C17        -8.1202    4.5001    3.9175 C.ar      1 <0>        -0.0904
     28 C18        -9.0568    5.1067    3.1035 C.ar      1 <0>        -0.1031
     29 C19        -9.8186    4.3448    2.2368 C.ar      1 <0>        -0.0949
     30 C20        -9.6457    2.9740    2.1823 C.ar      1 <0>        -0.1033
     31 C21        -8.7067    2.3623    2.9897 C.ar      1 <0>        -0.0933
     32 C22        -8.0349    2.9811    6.9636 C.2       1 <0>        -0.1106
     33 C23        -7.9757    3.1940    8.3179 C.2       1 <0>        -0.0942
     34 C24        -9.0742    3.7308    8.9509 C.2       1 <0>        -0.1613
     35 C25       -10.1784    4.0321    8.2197 C.2       1 <0>        -0.1591
     36 S3         -9.6785    3.5586    6.5726 S.3       1 <0>         0.0915
     37 H2          1.0039    1.9031    0.0027 H         1 <0>         0.0615
     38 H3         -0.5459    1.8868   -0.8726 H         1 <0>         0.0723
     39 H4         -0.5289    1.8773    0.9072 H         1 <0>         0.0572
     40 H5         -2.0230   -0.0358   -0.7468 H         1 <0>         0.1098
     41 H6         -1.4289   -1.6126   -0.1638 H         1 <0>         0.0782
     42 H7         -1.8298   -0.4033    3.4337 H         1 <0>         0.1033
     43 H8         -1.3043   -1.8497    2.5332 H         1 <0>         0.0843
     44 H9          0.1119    0.8487    2.7050 H         1 <0>         0.0820
     45 H10         0.7060   -0.7281    3.2880 H         1 <0>         0.1023
     46 H11         2.8290   -0.8290    2.9478 H         1 <0>         0.1171
     47 H12         1.9160   -2.3544    2.8590 H         1 <0>         0.1102
     48 H13         5.2842   -0.8665    1.8946 H         1 <0>         0.1303
     49 H14         7.0973   -2.4157    1.2201 H         1 <0>         0.1341
     50 H15         6.4550   -4.8974    0.8844 H         1 <0>         0.1860
     51 H16        -3.9645   -0.2631    3.3196 H         1 <0>         0.1283
     52 H17        -3.0517    1.2622    3.4118 H         1 <0>         0.1278
     53 H18        -7.5257    5.0956    4.5945 H         1 <0>         0.1295
     54 H19        -9.1945    6.1771    3.1444 H         1 <0>         0.1377
     55 H20       -10.5503    4.8214    1.6013 H         1 <0>         0.1354
     56 H21       -10.2424    2.3815    1.5046 H         1 <0>         0.1383
     57 H22        -8.5687    1.2922    2.9433 H         1 <0>         0.1326
     58 H23        -7.0853    2.9452    8.8762 H         1 <0>         0.1464
     59 H24        -9.0582    3.9097   10.0158 H         1 <0>         0.1443
     60 H25       -11.1164    4.4538    8.5494 H         1 <0>         0.1931
@<TRIPOS>BOND
     1    1    2 1
     2    1   37 1
     3    1   38 1
     4    1   39 1
     5    2    3 1
     6    2    8 1
     7    2    4 1
     8    4    5 1
     9    4   40 1
    10    4   41 1
    11    5    6 1
    12    5   17 am
    13    6    7 1
    14    6   42 1
    15    6   43 1
    16    7    8 1
    17    7   44 1
    18    7   45 1
    19    8    9 am
    20    9   10 2
    21    9   11 1
    22   11   12 1
    23   11   46 1
    24   11   47 1
    25   12   16 1
    26   12   13 2
    27   13   14 1
    28   13   48 1
    29   14   15 2
    30   14   49 1
    31   15   16 1
    32   15   50 1
    33   17   18 2
    34   17   19 1
    35   19   20 1
    36   19   51 1
    37   19   52 1
    38   20   21 1
    39   21   25 1
    40   21   22 2
    41   22   23 1
    42   23   24 2
    43   24   25 1
    44   24   32 1
    45   25   26 1
    46   26   31 ar
    47   26   27 ar
    48   27   28 ar
    49   27   53 1
    50   28   29 ar
    51   28   54 1
    52   29   30 ar
    53   29   55 1
    54   30   31 ar
    55   30   56 1
    56   31   57 1
    57   32   36 1
    58   32   33 2
    59   33   34 1
    60   33   58 1
    61   34   35 2
    62   34   59 1
    63   35   36 1
    64   35   60 1
@<TRIPOS>MOLECULE
ZINC39484346
   57    60     0     0     0
SMALL
USER_CHARGES

@<TRIPOS>ATOM
      1 C1         -0.0187    1.5258    0.0104 C.3       1 <0>        -0.1540
      2 C2          0.0021   -0.0041    0.0020 C.3       1 <0>        -0.1133
      3 C3          0.7182   -0.4975   -1.2568 C.3       1 <0>        -0.1877
      4 C4          0.7386   -2.0043   -1.2651 C.2       1 <0>         0.3666
      5 O1          0.2327   -2.6200   -0.3578 O.2       1 <0>        -0.4274
      6 C5          1.3905   -2.7428   -2.4056 C.3       1 <0>        -0.1249
      7 H1          2.2580   -2.1820   -2.7534 H         1 <0>         0.1201
      8 C6          1.8339   -4.1239   -1.9308 C.3       1 <0>         0.0029
      9 H2          0.9817   -4.6402   -1.4889 H         1 <0>         0.1249
     10 C7          2.3712   -4.9458   -3.0708 C.ar      1 <0>        -0.0139
     11 C8          3.2291   -5.9927   -2.7961 C.ar      1 <0>        -0.1057
     12 C9          3.7404   -6.7726   -3.8240 C.ar      1 <0>         0.0811
     13 C10         3.3898   -6.5047   -5.1493 C.ar      1 <0>         0.0238
     14 C11         2.5333   -5.4617   -5.4354 C.ar      1 <0>        -0.0361
     15 C12         2.0215   -4.6751   -4.3964 C.ar      1 <0>        -0.1546
     16 C13         1.1165   -3.5555   -4.7081 C.2       1 <0>         0.4105
     17 O2          0.9608   -3.1734   -5.8487 O.2       1 <0>        -0.4052
     18 C14         0.3865   -2.8980   -3.5555 C.3       1 <0>        -0.0928
     19 H3         -0.4460   -3.5259   -3.2382 H         1 <0>         0.1508
     20 Br1        -0.2784   -1.1314   -4.1052 Br        1 <0>        -0.0888
     21 O3          4.0200   -7.4064   -5.9575 O.3       1 <0>        -0.3011
     22 C15         5.0767   -7.9666   -5.1558 C.3       1 <0>         0.2112
     23 O4          4.5883   -7.8404   -3.8075 O.3       1 <0>        -0.2995
     24 C16         2.9100   -3.9655   -0.8878 C.ar      1 <0>        -0.1093
     25 C17         4.0888   -3.3158   -1.2038 C.ar      1 <0>        -0.0540
     26 C18         5.0757   -3.1705   -0.2472 C.ar      1 <0>        -0.1338
     27 C19         4.8840   -3.6745    1.0259 C.ar      1 <0>        -0.0161
     28 C20         3.7053   -4.3232    1.3421 C.ar      1 <0>        -0.6552
     29 C21         2.7163   -4.4648    0.3864 C.ar      1 <0>         0.0000
     30 S1          3.4612   -4.9660    2.9644 S.o2      1 <0>         2.4887
     31 O5          2.5366   -6.0319    2.7968 O.2       1 <0>        -0.9303
     32 O6          4.7708   -5.2137    3.4571 O.2       1 <0>        -0.9361
     33 C22         2.6908   -3.6106    3.8918 C.3       1 <0>        -0.5665
     34 C23         1.3658   -3.2280    3.2294 C.3       1 <0>        -0.1437
     35 C24         2.4303   -4.0607    5.3308 C.3       1 <0>        -0.1468
     36 H4          1.0039    1.9031    0.0027 H         1 <0>         0.0548
     37 H5         -0.5459    1.8868   -0.8726 H         1 <0>         0.0555
     38 H6         -0.5289    1.8773    0.9072 H         1 <0>         0.0582
     39 H7          0.5293   -0.3651    0.8851 H         1 <0>         0.0659
     40 H8         -1.0205   -0.3814    0.0098 H         1 <0>         0.0690
     41 H9          0.1910   -0.1364   -2.1398 H         1 <0>         0.1175
     42 H10         1.7408   -0.1202   -1.2645 H         1 <0>         0.0999
     43 H11         3.5045   -6.2057   -1.7738 H         1 <0>         0.1464
     44 H12         2.2591   -5.2518   -6.4587 H         1 <0>         0.1525
     45 H13         5.2348   -9.0148   -5.4091 H         1 <0>         0.1393
     46 H14         5.9974   -7.3975   -5.2843 H         1 <0>         0.0914
     47 H15         4.2385   -2.9221   -2.1983 H         1 <0>         0.1314
     48 H16         5.9968   -2.6636   -0.4943 H         1 <0>         0.1373
     49 H17         5.6555   -3.5616    1.7732 H         1 <0>         0.1436
     50 H18         1.7937   -4.9683    0.6346 H         1 <0>         0.1471
     51 H19         3.3574   -2.7482    3.8959 H         1 <0>         0.1385
     52 H20         0.9028   -2.4136    3.7867 H         1 <0>         0.0808
     53 H21         1.5513   -2.9073    2.2043 H         1 <0>         0.0726
     54 H22         0.6992   -4.0904    3.2254 H         1 <0>         0.0783
     55 H23         3.3743   -4.3333    5.8027 H         1 <0>         0.0739
     56 H24         1.9674   -3.2463    5.8880 H         1 <0>         0.0869
     57 H25         1.7638   -4.9231    5.3267 H         1 <0>         0.0753
@<TRIPOS>BOND
     1    1    2 1
     2    1   36 1
     3    1   37 1
     4    1   38 1
     5    2    3 1
     6    2   39 1
     7    2   40 1
     8    3    4 1
     9    3   41 1
    10    3   42 1
    11    4    5 2
    12    4    6 1
    13    6    7 1
    14    6   18 1
    15    6    8 1
    16    8    9 1
    17    8   10 1
    18    8   24 1
    19   10   15 ar
    20   10   11 ar
    21   11   12 ar
    22   11   43 1
    23   12   23 1
    24   12   13 ar
    25   13   14 ar
    26   13   21 1
    27   14   15 ar
    28   14   44 1
    29   15   16 1
    30   16   17 2
    31   16   18 1
    32   18   19 1
    33   18   20 1
    34   21   22 1
    35   22   23 1
    36   22   45 1
    37   22   46 1
    38   24   29 ar
    39   24   25 ar
    40   25   26 ar
    41   25   47 1
    42   26   27 ar
    43   26   48 1
    44   27   28 ar
    45   27   49 1
    46   28   29 ar
    47   28   30 1
    48   29   50 1
    49   30   31 2
    50   30   32 2
    51   30   33 1
    52   33   34 1
    53   33   35 1
    54   33   51 1
    55   34   52 1
    56   34   53 1
    57   34   54 1
    58   35   55 1
    59   35   56 1
    60   35   57 1
@<TRIPOS>MOLECULE
ZINC01789749
   60    64     0     0     0
SMALL
USER_CHARGES

@<TRIPOS>ATOM
      1 C1          1.9483   -3.1346   -2.4818 C.3       1 <0>        -0.1083
      2 C2          1.2720   -2.4144   -1.3438 C.2       1 <0>         0.2441
      3 C3          0.7528   -1.1676   -1.3939 C.2       1 <0>        -0.1477
      4 C4          0.2117   -0.8666   -0.1173 C.2       1 <0>         0.5628
      5 O1         -0.3380    0.1715    0.2038 O.2       1 <0>        -0.5104
      6 N1          0.4156   -1.9378    0.6761 N.am      1 <0>        -0.3631
      7 N2          1.0732   -2.9142   -0.0835 N.pl3     1 <0>        -0.3764
      8 C5          1.4812   -4.2395    0.3891 C.3       1 <0>         0.0935
      9 C6          0.0337   -2.0552    2.0162 C.ar      1 <0>         0.1463
     10 C7          0.9452   -2.5046    2.9629 C.ar      1 <0>        -0.1246
     11 C8          0.5648   -2.6194    4.2856 C.ar      1 <0>        -0.1020
     12 C9         -0.7221   -2.2876    4.6678 C.ar      1 <0>        -0.1137
     13 C10        -1.6321   -1.8399    3.7277 C.ar      1 <0>        -0.0989
     14 C11        -1.2564   -1.7173    2.4044 C.ar      1 <0>        -0.1003
     15 N3          0.7499   -0.3157   -2.5169 N.am      1 <0>        -0.4235
     16 C12         0.0466   -0.6556   -3.5839 C.2       1 <0>         0.5446
     17 O2         -0.5996   -1.6866   -3.6222 O.2       1 <0>        -0.4503
     18 C13         0.0844    0.2792   -4.7266 C.2       1 <0>        -0.2314
     19 C14        -0.5289    0.1946   -5.9344 C.2       1 <0>         0.0820
     20 C15        -0.1919    1.1498   -6.9977 C.ar      1 <0>        -0.0888
     21 C16         0.8852    2.0300   -6.8361 C.ar      1 <0>        -0.0705
     22 C17         1.1971    2.9231   -7.8364 C.ar      1 <0>        -0.1151
     23 C18         0.4450    2.9522   -9.0050 C.ar      1 <0>         0.1104
     24 C19        -0.6253    2.0808   -9.1708 C.ar      1 <0>        -0.1150
     25 C20        -0.9427    1.1799   -8.1793 C.ar      1 <0>        -0.0595
     26 O3          0.7567    3.8355   -9.9882 O.3       1 <0>        -0.2889
     27 C21         1.8208    3.5637  -10.7687 C.2       1 <0>         0.5128
     28 O4          2.4121    2.5099  -10.6441 O.2       1 <0>        -0.4682
     29 C22         2.2684    4.5471  -11.7759 C.ar      1 <0>        -0.1222
     30 C23         1.5945    5.7620  -11.9179 C.ar      1 <0>        -0.0122
     31 C24         2.0181    6.6759  -12.8600 C.ar      1 <0>        -0.1238
     32 C25         3.1082    6.3912  -13.6637 C.ar      1 <0>        -0.0183
     33 C26         3.7801    5.1894  -13.5287 C.ar      1 <0>        -0.0581
     34 C27         3.3707    4.2686  -12.5864 C.ar      1 <0>         0.0082
     35 N4          4.9447    4.8935  -14.3929 N.pl3     1 <0>         0.0310
     36 O5          5.3078    5.7015  -15.2157 O.2       1 <0>        -0.1461
     37 O6          5.5329    3.8437  -14.2761 O.3       1 <0>        -0.1474
     38 S1          1.1601    1.5530   -4.0816 S.3       1 <0>         0.0704
     39 C28         1.4599    0.8301   -2.4766 C.2       1 <0>         0.2586
     40 S2          2.4185    1.4424   -1.1971 S.2       1 <0>        -0.3008
     41 H1          1.2222   -3.7642   -2.9961 H         1 <0>         0.1051
     42 H2          2.3572   -2.4055   -3.1814 H         1 <0>         0.0898
     43 H3          2.7549   -3.7550   -2.0909 H         1 <0>         0.0932
     44 H4          1.9007   -4.8080   -0.4409 H         1 <0>         0.1096
     45 H5          2.2322   -4.1309    1.1716 H         1 <0>         0.0827
     46 H6          0.6141   -4.7657    0.7884 H         1 <0>         0.0854
     47 H7          1.9503   -2.7642    2.6650 H         1 <0>         0.1271
     48 H8          1.2730   -2.9691    5.0221 H         1 <0>         0.1334
     49 H9         -1.0172   -2.3787    5.7027 H         1 <0>         0.1316
     50 H10        -2.6364   -1.5816    4.0295 H         1 <0>         0.1347
     51 H11        -1.9662   -1.3630    1.6715 H         1 <0>         0.1306
     52 H12        -1.2649   -0.5753   -6.1136 H         1 <0>         0.1681
     53 H13         1.4700    2.0085   -5.9284 H         1 <0>         0.1390
     54 H14         2.0273    3.6026   -7.7126 H         1 <0>         0.1408
     55 H15        -1.2062    2.1077  -10.0808 H         1 <0>         0.1441
     56 H16        -1.7719    0.5006   -8.3108 H         1 <0>         0.1483
     57 H17         0.7434    5.9853  -11.2916 H         1 <0>         0.1615
     58 H18         1.4976    7.6157  -12.9711 H         1 <0>         0.1618
     59 H19         3.4357    7.1104  -14.3998 H         1 <0>         0.1642
     60 H20         3.8988    3.3327  -12.4789 H         1 <0>         0.1698
@<TRIPOS>BOND
     1    1    2 1
     2    1   41 1
     3    1   42 1
     4    1   43 1
     5    2    7 1
     6    2    3 2
     7    3    4 1
     8    3   15 1
     9    4    5 2
    10    4    6 am
    11    6    7 1
    12    6    9 1
    13    7    8 1
    14    8   44 1
    15    8   45 1
    16    8   46 1
    17    9   14 ar
    18    9   10 ar
    19   10   11 ar
    20   10   47 1
    21   11   12 ar
    22   11   48 1
    23   12   13 ar
    24   12   49 1
    25   13   14 ar
    26   13   50 1
    27   14   51 1
    28   15   39 1
    29   15   16 am
    30   16   17 2
    31   16   18 1
    32   18   19 2
    33   18   38 1
    34   19   20 1
    35   19   52 1
    36   20   25 ar
    37   20   21 ar
    38   21   22 ar
    39   21   53 1
    40   22   23 ar
    41   22   54 1
    42   23   24 ar
    43   23   26 1
    44   24   25 ar
    45   24   55 1
    46   25   56 1
    47   26   27 1
    48   27   28 2
    49   27   29 1
    50   29   34 ar
    51   29   30 ar
    52   30   31 ar
    53   30   57 1
    54   31   32 ar
    55   31   58 1
    56   32   33 ar
    57   32   59 1
    58   33   34 ar
    59   33   35 1
    60   34   60 1
    61   35   36 2
    62   35   37 1
    63   38   39 1
    64   39   40 2
@<TRIPOS>MOLECULE
ZINC00894559
   63    66     0     0     0
SMALL
USER_CHARGES
3-[(1-cyclohexyltetrazol-5-yl)-diethylamino-methyl]-5,7-dimethyl-1H-quinolin-2-one
@<TRIPOS>ATOM
      1 C1         -4.6889    9.2436    0.5632 C.3       1 <0>        -0.1884
      2 C2         -4.6093    8.1330    1.6125 C.3       1 <0>        -0.0080
      3 C3         -3.0150    6.5833    2.5714 C.3       1 <0>        -0.0003
      4 C4         -1.5445    6.1781    2.4522 C.3       1 <0>        -0.2095
      5 C5         -3.6642    6.3697    0.2486 C.3       1 <0>         0.2148
      6 H1         -4.5329    5.7515    0.4749 H         1 <0>         0.1574
      7 C6         -2.4555    5.4891    0.0629 C.2       1 <0>        -0.2736
      8 C7         -2.5617    4.1493    0.2431 C.2       1 <0>         0.0595
      9 C8         -1.3689    3.3216    0.0546 C.ar      1 <0>        -0.1659
     10 C9         -1.4179    1.9334    0.2204 C.ar      1 <0>         0.0004
     11 C10        -0.2859    1.1899    0.0426 C.ar      1 <0>        -0.1503
     12 C11         0.9107    1.7984   -0.3114 C.ar      1 <0>         0.0099
     13 C12         0.9812    3.1637   -0.4850 C.ar      1 <0>        -0.1788
     14 C13        -0.1576    3.9421   -0.3043 C.ar      1 <0>         0.2142
     15 N1         -0.1159    5.3099   -0.4719 N.am      1 <0>        -0.6248
     16 H2          0.7455    5.7491   -0.7268 H         1 <0>         0.4339
     17 C14        -1.2169    6.0618   -0.2975 C.2       1 <0>         0.5427
     18 O1         -1.1433    7.2683   -0.4541 O.2       1 <0>        -0.5114
     19 C15         2.1457    0.9572   -0.5072 C.3       1 <0>        -0.1328
     20 C16        -2.7128    1.2617    0.5986 C.3       1 <0>        -0.1295
     21 C17        -3.9176    7.1482   -1.0167 C.2       1 <0>         0.1154
     22 N2         -3.2365    8.1809   -1.4498 N.2       1 <0>        -0.2365
     23 N3         -3.7603    8.5647   -2.5626 N.2       1 <0>        -0.0598
     24 N4         -4.7578    7.8036   -2.8506 N.2       1 <0>        -0.0565
     25 N5         -4.8837    6.9144   -1.9242 N.pl3     1 <0>        -0.2779
     26 C18        -5.8910    5.8521   -1.8688 C.3       1 <0>         0.1374
     27 C19        -5.7496    4.9505   -3.0968 C.3       1 <0>        -0.1310
     28 C20        -6.8016    3.8411   -3.0388 C.3       1 <0>        -0.1148
     29 C21        -8.1991    4.4639   -3.0215 C.3       1 <0>        -0.1307
     30 C22        -8.3405    5.3655   -1.7935 C.3       1 <0>        -0.1153
     31 C23        -7.2884    6.4749   -1.8515 C.3       1 <0>        -0.1305
     32 H3         -3.7094    9.7086    0.4513 H         1 <0>         0.0942
     33 H4         -5.0011    8.8199   -0.3913 H         1 <0>         0.0621
     34 H5         -5.4128    9.9935    0.8820 H         1 <0>         0.1050
     35 H6         -5.5053    7.5148    1.5559 H         1 <0>         0.1270
     36 H7         -4.5357    8.5760    2.6057 H         1 <0>         0.1405
     37 H8         -3.1443    7.2309    3.4386 H         1 <0>         0.1383
     38 H9         -3.6294    5.6908    2.6896 H         1 <0>         0.1300
     39 H10        -1.4435    5.3931    1.7028 H         1 <0>         0.0870
     40 H11        -0.9522    7.0432    2.1543 H         1 <0>         0.0832
     41 H12        -1.1901    5.8092    3.4148 H         1 <0>         0.1064
     42 H13        -3.5054    3.7027    0.5195 H         1 <0>         0.1562
     43 H14        -0.3231    0.1186    0.1742 H         1 <0>         0.1403
     44 H15         1.9167    3.6275   -0.7608 H         1 <0>         0.1427
     45 H16         2.2077    0.6398   -1.5482 H         1 <0>         0.0876
     46 H17         3.0287    1.5434   -0.2529 H         1 <0>         0.0783
     47 H18         2.0938    0.0800    0.1376 H         1 <0>         0.0807
     48 H19        -2.7938    1.2140    1.6846 H         1 <0>         0.0868
     49 H20        -3.5495    1.8332    0.1967 H         1 <0>         0.0696
     50 H21        -2.7319    0.2522    0.1881 H         1 <0>         0.0849
     51 H22        -5.7457    5.2605   -0.9649 H         1 <0>         0.1101
     52 H23        -5.8949    5.5422   -4.0006 H         1 <0>         0.0901
     53 H24        -4.7541    4.5069   -3.1091 H         1 <0>         0.0730
     54 H25        -6.6563    3.2495   -2.1350 H         1 <0>         0.0682
     55 H26        -6.7009    3.1988   -3.9137 H         1 <0>         0.0819
     56 H27        -8.9486    3.6735   -2.9802 H         1 <0>         0.0771
     57 H28        -8.3444    5.0556   -3.9254 H         1 <0>         0.0721
     58 H29        -8.1952    4.7738   -0.8897 H         1 <0>         0.0682
     59 H30        -9.3360    5.8091   -1.7812 H         1 <0>         0.0824
     60 H31        -7.3892    7.1172   -0.9766 H         1 <0>         0.0728
     61 H32        -7.4338    7.0666   -2.7553 H         1 <0>         0.0911
     62 N6         -3.4031    7.3200    1.3502 N.4       1 <0>        -0.3937
     63 H33        -2.6337    7.9430    1.0778 H         1 <0>         0.4465
@<TRIPOS>BOND
     1    1    2 1
     2    1   32 1
     3    1   33 1
     4    1   34 1
     5    2   35 1
     6    2   36 1
     7    2   62 1
     8    3    4 1
     9    3   37 1
    10    3   38 1
    11    3   62 1
    12    4   39 1
    13    4   40 1
    14    4   41 1
    15    5    6 1
    16    5    7 1
    17    5   21 1
    18    5   62 1
    19    7   17 1
    20    7    8 2
    21    8    9 1
    22    8   42 1
    23    9   14 ar
    24    9   10 ar
    25   10   11 ar
    26   10   20 1
    27   11   12 ar
    28   11   43 1
    29   12   13 ar
    30   12   19 1
    31   13   14 ar
    32   13   44 1
    33   14   15 1
    34   15   16 1
    35   15   17 am
    36   17   18 2
    37   19   45 1
    38   19   46 1
    39   19   47 1
    40   20   48 1
    41   20   49 1
    42   20   50 1
    43   21   25 1
    44   21   22 2
    45   22   23 1
    46   23   24 2
    47   24   25 1
    48   25   26 1
    49   26   31 1
    50   26   27 1
    51   26   51 1
    52   27   28 1
    53   27   52 1
    54   27   53 1
    55   28   29 1
    56   28   54 1
    57   28   55 1
    58   29   30 1
    59   29   56 1
    60   29   57 1
    61   30   31 1
    62   30   58 1
    63   30   59 1
    64   31   60 1
    65   31   61 1
    66   62   63 1
@<TRIPOS>MOLECULE
ZINC19496579
   57    61     0     0     0
SMALL
USER_CHARGES
2-[(3R)-3-methyl-1-piperidyl]-6-[(4-oxochromen-3-yl)methyl]-3,5,7,8-tetrahydropyrido[3,4-e]pyrimidin-4-one
@<TRIPOS>ATOM
      1 C1          2.9043    8.6366   -8.7084 C.3       1 <0>        -0.1495
      2 C2          1.8628    7.5159   -8.7200 C.3       1 <0>        -0.0953
      3 H1          2.2229    6.6911   -9.3525 H         1 <0>         0.0840
      4 C3          0.5408    8.0513   -9.2771 C.3       1 <0>        -0.1250
      5 C4         -0.5114    6.9399   -9.2295 C.3       1 <0>        -0.1219
      6 C5         -0.6639    6.4498   -7.7877 C.3       1 <0>         0.0553
      7 N1          0.6273    5.9473   -7.3011 N.pl3     1 <0>        -0.4750
      8 C6          1.6415    7.0092   -7.2931 C.3       1 <0>         0.0761
      9 C7          0.4980    5.3829   -6.0606 C.2       1 <0>         0.6064
     10 N2         -0.3226    4.3104   -5.8953 N.am      1 <0>        -0.6427
     11 H2         -0.8741    3.9022   -6.7551 H         1 <0>         0.4586
     12 C8         -0.4537    3.7542   -4.6735 C.2       1 <0>         0.5571
     13 O1         -1.1844    2.7916   -4.5061 O.2       1 <0>        -0.5246
     14 C9          0.2672    4.3022   -3.5932 C.2       1 <0>        -0.3515
     15 C10         1.0765    5.3711   -3.8175 C.2       1 <0>         0.2399
     16 N3          1.1700    5.8861   -5.0469 N.2       1 <0>        -0.5756
     17 C11         1.8870    5.9971   -2.7119 C.3       1 <0>        -0.1045
     18 C12         1.3424    5.5589   -1.3521 C.3       1 <0>         0.0011
     19 N4          1.2118    4.0929   -1.3516 N.4       1 <0>        -0.4032
     20 C13         0.1121    3.6827   -2.2312 C.3       1 <0>         0.0841
     21 C14         1.0140    3.5824    0.0116 C.3       1 <0>         0.0782
     22 C15         1.1040    2.0781    0.0027 C.2       1 <0>        -0.3833
     23 C16        -0.0161    1.3330    0.0094 C.2       1 <0>         0.2150
     24 O2          0.0021   -0.0041    0.0020 O.3       1 <0>        -0.2016
     25 C17         1.1503   -0.7113   -0.0127 C.ar      1 <0>         0.1247
     26 C18         1.1350   -2.1010   -0.0206 C.ar      1 <0>        -0.1267
     27 C19         2.3221   -2.8013   -0.0361 C.ar      1 <0>        -0.0479
     28 C20         3.5386   -2.1339   -0.0440 C.ar      1 <0>        -0.1323
     29 C21         3.5758   -0.7568   -0.0370 C.ar      1 <0>        -0.0306
     30 C22         2.3821   -0.0373   -0.0208 C.ar      1 <0>        -0.2204
     31 C23         2.3717    1.4384   -0.0123 C.2       1 <0>         0.4337
     32 O3          3.4077    2.0811   -0.0184 O.2       1 <0>        -0.4691
     33 H3          3.0629    9.0004   -9.7343 H         1 <0>         0.0662
     34 H4          3.8526    8.2517   -8.3051 H         1 <0>         0.0604
     35 H5          2.5462    9.4634   -8.0774 H         1 <0>         0.0585
     36 H6          0.2052    8.9042   -8.6688 H         1 <0>         0.0674
     37 H7          0.6867    8.3777  -10.3174 H         1 <0>         0.0784
     38 H8         -1.4744    7.3311   -9.5894 H         1 <0>         0.0875
     39 H9         -0.1921    6.1050   -9.8706 H         1 <0>         0.0816
     40 H10        -0.9964    7.2826   -7.1506 H         1 <0>         0.0668
     41 H11        -1.4086    5.6410   -7.7522 H         1 <0>         0.0868
     42 H12         2.5862    6.6103   -6.8950 H         1 <0>         0.0963
     43 H13         1.2976    7.8392   -6.6584 H         1 <0>         0.0693
     44 H14         2.9362    5.6790   -2.8012 H         1 <0>         0.1231
     45 H15         1.8282    7.0928   -2.7894 H         1 <0>         0.1415
     46 H16         2.0374    5.8741   -0.5599 H         1 <0>         0.1477
     47 H17         0.3596    6.0234   -1.1837 H         1 <0>         0.1353
     48 H18        -0.8405    4.0072   -1.7871 H         1 <0>         0.1316
     49 H19         0.1188    2.5866   -2.3240 H         1 <0>         0.1312
     50 H20         1.7915    3.9923    0.6730 H         1 <0>         0.1494
     51 H21         0.0227    3.8883    0.3775 H         1 <0>         0.1375
     52 H22        -0.9714    1.8366    0.0166 H         1 <0>         0.2083
     53 H23         0.1942   -2.6314   -0.0141 H         1 <0>         0.1512
     54 H24         2.3052   -3.8812   -0.0424 H         1 <0>         0.1500
     55 H25         4.4604   -2.6966   -0.0561 H         1 <0>         0.1449
     56 H26         4.5233   -0.2384   -0.0435 H         1 <0>         0.1473
     57 H27         2.1449    3.6569   -1.7379 H         1 <0>         0.4483
@<TRIPOS>BOND
     1    1    2 1
     2    1   33 1
     3    1   34 1
     4    1   35 1
     5    2    3 1
     6    2    8 1
     7    2    4 1
     8    4    5 1
     9    4   36 1
    10    4   37 1
    11    5    6 1
    12    5   38 1
    13    5   39 1
    14    6    7 1
    15    6   40 1
    16    6   41 1
    17    7    8 1
    18    7    9 1
    19    8   42 1
    20    8   43 1
    21    9   16 2
    22    9   10 1
    23   10   11 1
    24   10   12 am
    25   12   13 2
    26   12   14 1
    27   14   20 1
    28   14   15 2
    29   15   16 1
    30   15   17 1
    31   17   18 1
    32   17   44 1
    33   17   45 1
    34   18   19 1
    35   18   46 1
    36   18   47 1
    37   19   20 1
    38   19   21 1
    39   19   57 1
    40   20   48 1
    41   20   49 1
    42   21   22 1
    43   21   50 1
    44   21   51 1
    45   22   31 1
    46   22   23 2
    47   23   24 1
    48   23   52 1
    49   24   25 1
    50   25   30 ar
    51   25   26 ar
    52   26   27 ar
    53   26   53 1
    54   27   28 ar
    55   27   54 1
    56   28   29 ar
    57   28   55 1
    58   29   30 ar
    59   29   56 1
    60   30   31 1
    61   31   32 2
@<TRIPOS>MOLECULE
ZINC04188364
   53    56     0     0     0
SMALL
USER_CHARGES

@<TRIPOS>ATOM
      1 C1         -0.0187    1.5258    0.0104 C.3       1 <0>        -0.1574
      2 C2          0.0021   -0.0041    0.0020 C.3       1 <0>         0.0512
      3 O1          0.6709   -0.4649   -1.1737 O.3       1 <0>        -0.2910
      4 C3          0.7769   -1.8114   -1.3363 C.ar      1 <0>         0.1157
      5 C4          0.2414   -2.6652   -0.3843 C.ar      1 <0>        -0.1308
      6 C5          0.3342   -4.0315   -0.5554 C.ar      1 <0>        -0.1604
      7 C6          0.9379   -4.5396   -1.7028 C.ar      1 <0>         0.1468
      8 C7          1.5044   -3.6985   -2.6378 C.ar      1 <0>        -0.1739
      9 C8          1.4171   -2.3247   -2.4604 C.ar      1 <0>         0.1640
     10 O2          1.9602   -1.4826   -3.3799 O.3       1 <0>        -0.2861
     11 C9          2.6016   -2.0806   -4.5082 C.3       1 <0>         0.0483
     12 C10         3.1472   -0.9840   -5.4251 C.3       1 <0>        -0.1559
     13 N1          0.8593   -5.9323   -1.8930 N.pl3     1 <0>        -0.3906
     14 C11         1.8001   -6.8193   -2.2881 C.2       1 <0>         0.0497
     15 C12         1.2292   -8.0456   -2.3089 C.2       1 <0>        -0.1919
     16 C13        -0.1170   -7.8943   -1.9109 C.2       1 <0>        -0.1086
     17 C14        -0.3197   -6.5887   -1.6640 C.2       1 <0>        -0.0719
     18 C15        -1.5815   -5.9066   -1.2204 C.3       1 <0>         0.1712
     19 H1         -1.7338   -5.0089   -1.8195 H         1 <0>         0.1521
     20 N2         -1.5006   -5.5323    0.2023 N.4       1 <0>        -0.5071
     21 C16        -0.1623   -4.9873    0.4849 C.3       1 <0>         0.0501
     22 C17        -2.7471   -6.8405   -1.4212 C.ar      1 <0>        -0.1299
     23 C18        -3.0031   -7.8355   -0.4960 C.ar      1 <0>        -0.0734
     24 C19        -4.0721   -8.6920   -0.6801 C.ar      1 <0>        -0.0954
     25 C20        -4.8857   -8.5534   -1.7893 C.ar      1 <0>        -0.0285
     26 C21        -4.6304   -7.5582   -2.7138 C.ar      1 <0>        -0.0331
     27 C22        -3.5636   -6.6987   -2.5273 C.ar      1 <0>        -0.0215
     28 N3         -5.5012   -7.4103   -3.9015 N.pl3     1 <0>         0.0227
     29 O3         -6.4358   -8.1600   -4.0630 O.2       1 <0>        -0.1320
     30 O4         -5.2778   -6.5397   -4.7102 O.3       1 <0>        -0.1425
     31 H2          1.0039    1.9031    0.0027 H         1 <0>         0.0721
     32 H3         -0.5459    1.8868   -0.8726 H         1 <0>         0.0714
     33 H4         -0.5289    1.8773    0.9072 H         1 <0>         0.0854
     34 H5          0.5293   -0.3651    0.8851 H         1 <0>         0.0668
     35 H6         -1.0205   -0.3814    0.0098 H         1 <0>         0.0643
     36 H7         -0.2473   -2.2617    0.4902 H         1 <0>         0.1551
     37 H8          2.0082   -4.1053   -3.5021 H         1 <0>         0.1563
     38 H9          3.4228   -2.7111   -4.1674 H         1 <0>         0.0689
     39 H10         1.8810   -2.6874   -5.0564 H         1 <0>         0.0687
     40 H11         2.3260   -0.3535   -5.7659 H         1 <0>         0.0719
     41 H12         3.8679   -0.3772   -4.8769 H         1 <0>         0.0720
     42 H13         3.6364   -1.4401   -6.2857 H         1 <0>         0.0870
     43 H14         2.8244   -6.5898   -2.5424 H         1 <0>         0.1814
     44 H15         1.7144   -8.9713   -2.5808 H         1 <0>         0.1576
     45 H16        -0.8495   -8.6829   -1.8213 H         1 <0>         0.1488
     46 H17        -2.1991   -4.8336    0.4071 H         1 <0>         0.4331
     47 H18         0.5418   -5.8159    0.5604 H         1 <0>         0.1374
     48 H19        -0.1923   -4.4718    1.4449 H         1 <0>         0.1459
     49 H20        -2.3675   -7.9437    0.3705 H         1 <0>         0.1431
     50 H21        -4.2716   -9.4696    0.0422 H         1 <0>         0.1638
     51 H22        -5.7207   -9.2231   -1.9336 H         1 <0>         0.1682
     52 H23        -3.3662   -5.9187   -3.2477 H         1 <0>         0.1626
     53 H24        -1.6604   -6.3476    0.7749 H         1 <0>         0.4284
@<TRIPOS>BOND
     1    1    2 1
     2    1   31 1
     3    1   32 1
     4    1   33 1
     5    2    3 1
     6    2   34 1
     7    2   35 1
     8    3    4 1
     9    4    9 ar
    10    4    5 ar
    11    5    6 ar
    12    5   36 1
    13    6   21 1
    14    6    7 ar
    15    7    8 ar
    16    7   13 1
    17    8    9 ar
    18    8   37 1
    19    9   10 1
    20   10   11 1
    21   11   12 1
    22   11   38 1
    23   11   39 1
    24   12   40 1
    25   12   41 1
    26   12   42 1
    27   13   17 1
    28   13   14 1
    29   14   15 2
    30   14   43 1
    31   15   16 1
    32   15   44 1
    33   16   17 2
    34   16   45 1
    35   17   18 1
    36   18   19 1
    37   18   20 1
    38   18   22 1
    39   20   21 1
    40   20   46 1
    41   20   53 1
    42   21   47 1
    43   21   48 1
    44   22   27 ar
    45   22   23 ar
    46   23   24 ar
    47   23   49 1
    48   24   25 ar
    49   24   50 1
    50   25   26 ar
    51   25   51 1
    52   26   27 ar
    53   26   28 1
    54   27   52 1
    55   28   29 2
    56   28   30 1
@<TRIPOS>MOLECULE
ZINC22293470
   56    59     0     0     0
SMALL
USER_CHARGES

@<TRIPOS>ATOM
      1 C1         -0.0184    1.5028    0.0103 C.3       1 <0>        -0.0771
      2 C2          0.0021   -0.0041    0.0020 C.2       1 <0>         0.1052
      3 C3          0.0084   -0.8372   -1.1293 C.2       1 <0>        -0.0471
      4 N1          0.0272   -2.0889   -0.7123 N.2       1 <0>        -0.1715
      5 N2          0.0332   -2.1118    0.5745 N.pl3     1 <0>        -0.1524
      6 N3          0.0232   -0.7939    1.0504 N.2       1 <0>        -0.2766
      7 C4          0.0520   -3.2657    1.3696 C.ar      1 <0>         0.1454
      8 C5          0.0504   -3.1570    2.7539 C.ar      1 <0>        -0.1026
      9 C6          0.0685   -4.2961    3.5346 C.ar      1 <0>        -0.0977
     10 C7          0.0881   -5.5440    2.9392 C.ar      1 <0>        -0.1093
     11 C8          0.0902   -5.6556    1.5608 C.ar      1 <0>        -0.1003
     12 C9          0.0664   -4.5203    0.7746 C.ar      1 <0>        -0.1092
     13 C10        -0.0044   -0.3895   -2.5408 C.2       1 <0>         0.5917
     14 O1         -0.0222    0.8012   -2.8026 O.2       1 <0>        -0.5062
     15 N4          0.0034   -1.2896   -3.5267 N.2       1 <0>        -0.5741
     16 C11        -0.0081   -0.8869   -4.7963 C.2       1 <0>         0.3658
     17 N5         -0.0083   -1.6479   -5.9249 N.pl3     1 <0>        -0.6111
     18 C12        -0.0214   -1.0262   -7.1346 C.2       1 <0>         0.0083
     19 C13        -0.0333    0.3113   -7.1370 C.2       1 <0>        -0.2035
     20 S1         -0.0332    0.6847   -5.3935 S.3       1 <0>         0.2460
     21 C14        -0.0219   -1.8126   -8.4201 C.3       1 <0>         0.0642
     22 N6          1.2395   -2.5557   -8.5401 N.4       1 <0>        -0.3895
     23 C15         2.3548   -1.6084   -8.6550 C.3       1 <0>        -0.0083
     24 C16         3.6781   -2.3754   -8.6986 C.3       1 <0>        -0.1119
     25 H1          4.5048   -1.6704   -8.7858 H         1 <0>         0.1218
     26 C17         3.6776   -3.3149   -9.9081 C.3       1 <0>        -0.1295
     27 C18         2.4679   -4.2494   -9.8156 C.3       1 <0>        -0.1126
     28 H2          2.5558   -4.8715   -8.9249 H         1 <0>         0.0950
     29 C19         1.1894   -3.4129   -9.7306 C.3       1 <0>        -0.0068
     30 C20         2.4147   -5.1406  -11.0581 C.3       1 <0>        -0.1514
     31 C21         3.8372   -3.1932   -7.4154 C.3       1 <0>        -0.1712
     32 H3          1.0042    1.8801    0.0026 H         1 <0>         0.0910
     33 H4         -0.5455    1.8639   -0.8728 H         1 <0>         0.0998
     34 H5         -0.5286    1.8543    0.9071 H         1 <0>         0.0849
     35 H6          0.0355   -2.1826    3.2195 H         1 <0>         0.1428
     36 H7          0.0676   -4.2121    4.6114 H         1 <0>         0.1402
     37 H8          0.1021   -6.4333    3.5518 H         1 <0>         0.1355
     38 H9          0.1062   -6.6316    1.0987 H         1 <0>         0.1379
     39 H10         0.0636   -4.6082   -0.3018 H         1 <0>         0.1391
     40 H11        -0.0446    0.9895   -7.9775 H         1 <0>         0.2168
     41 H12        -0.8573   -2.5127   -8.4174 H         1 <0>         0.1495
     42 H13        -0.1229   -1.1297   -9.2637 H         1 <0>         0.1634
     43 H14         2.2430   -1.0254   -9.5691 H         1 <0>         0.1366
     44 H15         2.3519   -0.9384   -7.7952 H         1 <0>         0.1287
     45 H16         3.6162   -2.7287  -10.8249 H         1 <0>         0.0855
     46 H17         4.5943   -3.9046   -9.9119 H         1 <0>         0.0963
     47 H18         0.3262   -4.0751   -9.6648 H         1 <0>         0.1331
     48 H19         1.1024   -2.7914  -10.6218 H         1 <0>         0.1357
     49 H20         3.3274   -5.7333  -11.1195 H         1 <0>         0.0787
     50 H21         1.5535   -5.8055  -10.9917 H         1 <0>         0.0689
     51 H22         2.3253   -4.5180  -11.9483 H         1 <0>         0.0687
     52 H23         3.0111   -3.8992   -7.3296 H         1 <0>         0.0488
     53 H24         4.7800   -3.7394   -7.4471 H         1 <0>         0.0872
     54 H25         3.8339   -2.5238   -6.5552 H         1 <0>         0.0717
     55 H26         0.0010   -2.6161   -5.8675 H         1 <0>         0.4185
     56 H27         1.3706   -3.1285   -7.7198 H         1 <0>         0.4175
@<TRIPOS>BOND
     1    1    2 1
     2    1   32 1
     3    1   33 1
     4    1   34 1
     5    2    6 2
     6    2    3 1
     7    3    4 2
     8    3   13 1
     9    4    5 1
    10    5    6 1
    11    5    7 1
    12    7   12 ar
    13    7    8 ar
    14    8    9 ar
    15    8   35 1
    16    9   10 ar
    17    9   36 1
    18   10   11 ar
    19   10   37 1
    20   11   12 ar
    21   11   38 1
    22   12   39 1
    23   13   14 2
    24   13   15 1
    25   15   16 2
    26   16   20 1
    27   16   17 1
    28   17   18 1
    29   17   55 1
    30   18   19 2
    31   18   21 1
    32   19   20 1
    33   19   40 1
    34   21   22 1
    35   21   41 1
    36   21   42 1
    37   22   29 1
    38   22   23 1
    39   22   56 1
    40   23   24 1
    41   23   43 1
    42   23   44 1
    43   24   25 1
    44   24   26 1
    45   24   31 1
    46   26   27 1
    47   26   45 1
    48   26   46 1
    49   27   28 1
    50   27   29 1
    51   27   30 1
    52   29   47 1
    53   29   48 1
    54   30   49 1
    55   30   50 1
    56   30   51 1
    57   31   52 1
    58   31   53 1
    59   31   54 1
@<TRIPOS>MOLECULE
ZINC64175098
   52    56     0     0     0
SMALL
USER_CHARGES

@<TRIPOS>ATOM
      1 C1         -1.5519   -2.9583    0.6494 C.3       1 <0>        -0.1576
      2 C2         -1.4242   -1.5303    1.1836 C.3       1 <0>         0.1116
      3 H1         -2.2496   -1.3078    1.8599 H         1 <0>         0.1678
      4 C3         -1.4105   -0.5443    0.0365 C.2       1 <0>         0.1691
      5 C4         -0.1846    0.1104    0.1188 C.ar      1 <0>        -0.1715
      6 C5          0.4083    1.1267   -0.6628 C.ar      1 <0>         0.0080
      7 C6          1.6452    1.5858   -0.3440 C.ar      1 <0>        -0.1687
      8 C7          2.3561    1.0770    0.7454 C.ar      1 <0>         0.0465
      9 C8          1.8487    0.1015    1.5383 C.ar      1 <0>        -0.2108
     10 C9          0.5607   -0.4286    1.2682 C.ar      1 <0>         0.3123
     11 N1         -0.1437   -1.3637    1.8779 N.pl3     1 <0>        -0.6099
     12 C10        -2.4283   -0.3324   -0.9183 C.2       1 <0>         0.0329
     13 C11        -3.6554   -0.9733   -0.8063 C.2       1 <0>        -0.2468
     14 S1         -4.4891   -0.3998   -2.1506 S.3       1 <0>         0.3578
     15 C12        -3.2165    0.6563   -2.8178 C.2       1 <0>         0.2897
     16 N2         -2.2383    0.4961   -1.9527 N.2       1 <0>        -0.4928
     17 N3         -3.2508    1.4485   -3.9559 N.am      1 <0>        -0.6056
     18 C13        -4.3608    1.4832   -4.7195 C.2       1 <0>         0.5021
     19 O1         -5.3296    0.8218   -4.4116 O.2       1 <0>        -0.4778
     20 C14        -4.3982    2.3439   -5.9560 C.3       1 <0>         0.1003
     21 N4         -5.7041    2.2084   -6.6061 N.am      1 <0>        -0.5375
     22 C15        -5.9184    1.2158   -7.5729 C.ar      1 <0>         0.0912
     23 C16        -5.0353    0.1574   -7.7085 C.ar      1 <0>        -0.1222
     24 C17        -5.2645   -0.8105   -8.6692 C.ar      1 <0>        -0.1087
     25 C18        -6.3715   -0.7243   -9.4932 C.ar      1 <0>        -0.1017
     26 C19        -7.2575    0.3297   -9.3621 C.ar      1 <0>        -0.1031
     27 C20        -7.0351    1.3020   -8.4026 C.ar      1 <0>         0.0872
     28 O2         -7.8972    2.3436   -8.2577 O.3       1 <0>        -0.2971
     29 C21        -8.0680    2.8576   -6.9343 C.3       1 <0>         0.0829
     30 H2         -8.6642    2.1587   -6.3477 H         1 <0>         0.1086
     31 C22        -6.7219    3.0342   -6.2791 C.2       1 <0>         0.5007
     32 O3         -6.5524    3.9167   -5.4644 O.2       1 <0>        -0.4966
     33 C23        -8.7850    4.2076   -7.0008 C.3       1 <0>        -0.1380
     34 H3         -1.5435   -3.6603    1.4833 H         1 <0>         0.0983
     35 H4         -2.4878   -3.0583    0.0997 H         1 <0>         0.0989
     36 H5         -0.7153   -3.1738   -0.0153 H         1 <0>         0.0834
     37 H6         -0.1203    1.5365   -1.5108 H         1 <0>         0.1598
     38 H7          2.0905    2.3630   -0.9473 H         1 <0>         0.1514
     39 H8          3.3379    1.4716    0.9618 H         1 <0>         0.1570
     40 H9          2.4232   -0.2708    2.3736 H         1 <0>         0.1566
     41 H10        -3.9900   -1.6653   -0.0476 H         1 <0>         0.2190
     42 H11        -2.4760    1.9775   -4.2022 H         1 <0>         0.4355
     43 H12        -4.2367    3.3855   -5.6786 H         1 <0>         0.1407
     44 H13        -3.6151    2.0255   -6.6441 H         1 <0>         0.1348
     45 H14        -4.1699    0.0886   -7.0660 H         1 <0>         0.1220
     46 H15        -4.5765   -1.6362   -8.7764 H         1 <0>         0.1339
     47 H16        -6.5449   -1.4827  -10.2423 H         1 <0>         0.1389
     48 H17        -8.1212    0.3939  -10.0073 H         1 <0>         0.1444
     49 H18        -9.7606    4.0781   -7.4692 H         1 <0>         0.0857
     50 H19        -8.9154    4.5998   -5.9922 H         1 <0>         0.0934
     51 H20        -8.1898    4.9066   -7.5883 H         1 <0>         0.0734
     52 H21         0.1402   -1.8620    2.6603 H         1 <0>         0.4506
@<TRIPOS>BOND
     1    1    2 1
     2    1   34 1
     3    1   35 1
     4    1   36 1
     5    2    3 1
     6    2   11 1
     7    2    4 1
     8    4    5 2
     9    4   12 1
    10    5   10 ar
    11    5    6 ar
    12    6    7 ar
    13    6   37 1
    14    7    8 ar
    15    7   38 1
    16    8    9 ar
    17    8   39 1
    18    9   10 ar
    19    9   40 1
    20   10   11 2
    21   11   52 1
    22   12   16 1
    23   12   13 2
    24   13   14 1
    25   13   41 1
    26   14   15 1
    27   15   16 2
    28   15   17 1
    29   17   18 am
    30   17   42 1
    31   18   19 2
    32   18   20 1
    33   20   21 1
    34   20   43 1
    35   20   44 1
    36   21   31 am
    37   21   22 1
    38   22   27 ar
    39   22   23 ar
    40   23   24 ar
    41   23   45 1
    42   24   25 ar
    43   24   46 1
    44   25   26 ar
    45   25   47 1
    46   26   27 ar
    47   26   48 1
    48   27   28 1
    49   28   29 1
    50   29   30 1
    51   29   31 1
    52   29   33 1
    53   31   32 2
    54   33   49 1
    55   33   50 1
    56   33   51 1
@<TRIPOS>MOLECULE
ZINC09463434
   60    63     0     0     0
SMALL
USER_CHARGES
[4-(2-pyridyl)piperazin-1-yl]-(1-styrylsulfonyl-4-piperidyl)-methanone
@<TRIPOS>ATOM
      1 C1         -2.7219    4.0976   -5.6001 C.ar      1 <0>        -0.0943
      2 C2         -1.4828    4.6614   -5.3537 C.ar      1 <0>        -0.1243
      3 C3         -0.7471    4.2648   -4.2559 C.ar      1 <0>        -0.0846
      4 C4         -1.2556    3.2931   -3.3931 C.ar      1 <0>        -0.1048
      5 C5         -2.5037    2.7246   -3.6503 C.ar      1 <0>        -0.0875
      6 C6         -3.2319    3.1341   -4.7483 C.ar      1 <0>        -0.1265
      7 C7         -0.4729    2.8636   -2.2152 C.2       1 <0>         0.0678
      8 C8         -0.9587    1.9402   -1.3973 C.2       1 <0>        -0.7607
      9 S1         -0.0256    1.4282    0.0069 S.o2      1 <0>         2.6816
     10 O1         -0.0185    0.0073   -0.0064 O.2       1 <0>        -0.9536
     11 O2          1.1701    2.1960    0.0020 O.2       1 <0>        -0.9559
     12 N1         -0.8757    1.8847    1.3527 N.pl3     1 <0>        -1.0002
     13 C9         -0.6523    3.1997    1.9689 C.3       1 <0>         0.1182
     14 C10        -0.3391    3.0076    3.4516 C.3       1 <0>        -0.1182
     15 C11        -1.4549    2.1886    4.1045 C.3       1 <0>        -0.1054
     16 C12        -1.5326    0.8107    3.4430 C.3       1 <0>        -0.1211
     17 C13        -1.8633    0.9801    1.9568 C.3       1 <0>         0.1188
     18 C14        -1.1633    2.0244    5.5738 C.2       1 <0>         0.5256
     19 O3         -0.0178    1.9100    5.9556 O.2       1 <0>        -0.5153
     20 N2         -2.1754    2.0045    6.4637 N.am      1 <0>        -0.6278
     21 C15        -3.5758    2.0300    6.0148 C.3       1 <0>         0.1054
     22 C16        -4.3230    0.8757    6.7014 C.3       1 <0>         0.0368
     23 N3         -4.1354    0.9738    8.1551 N.pl3     1 <0>        -0.4753
     24 C17        -2.7215    0.8173    8.5217 C.3       1 <0>         0.0044
     25 C18        -1.9087    1.9630    7.9095 C.3       1 <0>         0.1188
     26 C19        -4.9287    0.0485    8.8234 C.ar      1 <0>         0.3679
     27 C20        -6.3034    0.0363    8.6088 C.ar      1 <0>        -0.1513
     28 C21        -7.0807   -0.8898    9.2803 C.ar      1 <0>         0.0370
     29 C22        -6.4550   -1.7761   10.1473 C.ar      1 <0>        -0.1469
     30 C23        -5.0864   -1.7078   10.3125 C.ar      1 <0>         0.1476
     31 H1         -3.2937    4.4112   -6.4610 H         1 <0>         0.1294
     32 H2         -1.0904    5.4133   -6.0222 H         1 <0>         0.1317
     33 H3          0.2200    4.7056   -4.0646 H         1 <0>         0.1326
     34 H4         -2.9008    1.9689   -2.9887 H         1 <0>         0.1272
     35 H5         -4.2000    2.6981   -4.9460 H         1 <0>         0.1293
     36 H6          0.4948    3.3019   -2.0208 H         1 <0>         0.1456
     37 H7         -1.9264    1.5019   -1.5917 H         1 <0>         0.1611
     38 H8          0.1874    3.6941    1.4805 H         1 <0>         0.1033
     39 H9         -1.5495    3.8097    1.8638 H         1 <0>         0.0745
     40 H10        -0.2689    3.9801    3.9388 H         1 <0>         0.0834
     41 H11         0.6085    2.4790    3.5553 H         1 <0>         0.0860
     42 H12        -2.4061    2.7058    3.9789 H         1 <0>         0.0975
     43 H13        -2.3119    0.2196    3.9240 H         1 <0>         0.0755
     44 H14        -0.5740    0.3023    3.5467 H         1 <0>         0.0828
     45 H15        -2.8613    1.4054    1.8507 H         1 <0>         0.0749
     46 H16        -1.8224    0.0105    1.4605 H         1 <0>         0.1021
     47 H17        -4.0315    2.9808    6.2909 H         1 <0>         0.0931
     48 H18        -3.6160    1.9018    4.9331 H         1 <0>         0.1141
     49 H19        -3.9299   -0.0774    6.3475 H         1 <0>         0.0764
     50 H20        -5.3854    0.9411    6.4666 H         1 <0>         0.1177
     51 H21        -2.3507   -0.1350    8.1424 H         1 <0>         0.0768
     52 H22        -2.6225    0.8404    9.6069 H         1 <0>         0.1053
     53 H23        -0.8462    1.7905    8.0810 H         1 <0>         0.1171
     54 H24        -2.2073    2.9075    8.3642 H         1 <0>         0.0899
     55 H25        -6.7572    0.7402    7.9268 H         1 <0>         0.1870
     56 H26        -8.1502   -0.9227    9.1340 H         1 <0>         0.1796
     57 H27        -7.0335   -2.5116   10.6865 H         1 <0>         0.1877
     58 H28        -4.5958   -2.3951   10.9857 H         1 <0>         0.1976
     59 N4         -4.2905   -0.8152    9.6648 N.ar      1 <0>        -0.5247
     60 H29        -3.2730   -0.7928    9.8005 H         1 <0>         0.4690
@<TRIPOS>BOND
     1    1    6 ar
     2    1    2 ar
     3    1   31 1
     4    2    3 ar
     5    2   32 1
     6    3    4 ar
     7    3   33 1
     8    4    5 ar
     9    4    7 1
    10    5    6 ar
    11    5   34 1
    12    6   35 1
    13    7    8 2
    14    7   36 1
    15    8    9 1
    16    8   37 1
    17    9   10 2
    18    9   11 2
    19    9   12 1
    20   12   17 1
    21   12   13 1
    22   13   14 1
    23   13   38 1
    24   13   39 1
    25   14   15 1
    26   14   40 1
    27   14   41 1
    28   15   16 1
    29   15   18 1
    30   15   42 1
    31   16   17 1
    32   16   43 1
    33   16   44 1
    34   17   45 1
    35   17   46 1
    36   18   19 2
    37   18   20 am
    38   20   25 1
    39   20   21 1
    40   21   22 1
    41   21   47 1
    42   21   48 1
    43   22   23 1
    44   22   49 1
    45   22   50 1
    46   23   24 1
    47   23   26 1
    48   24   25 1
    49   24   51 1
    50   24   52 1
    51   25   53 1
    52   25   54 1
    53   26   27 ar
    54   26   59 ar
    55   27   28 ar
    56   27   55 1
    57   28   29 ar
    58   28   56 1
    59   29   30 ar
    60   29   57 1
    61   30   58 1
    62   30   59 ar
    63   59   60 1
@<TRIPOS>MOLECULE
ZINC20653434
   65    69     0     0     0
SMALL
USER_CHARGES
2,5-dimethyl-3-[4-[[3-[1-(p-tolyl)cyclopentyl]-1,2,4-oxadiazol-5-yl]methyl]piperazin-1-yl]pyrazine
@<TRIPOS>ATOM
      1 C1         -4.4260    0.6879    4.6375 C.3       1 <0>        -0.1234
      2 C2         -3.5987    0.9966    3.4163 C.ar      1 <0>        -0.0756
      3 C3         -4.0716    1.8833    2.4671 C.ar      1 <0>        -0.1130
      4 C4         -3.3123    2.1671    1.3473 C.ar      1 <0>        -0.1033
      5 C5         -2.0799    1.5645    1.1770 C.ar      1 <0>        -0.0828
      6 C6         -1.6093    0.6738    2.1236 C.ar      1 <0>        -0.1065
      7 C7         -2.3667    0.3933    3.2455 C.ar      1 <0>        -0.1171
      8 C8         -1.2521    1.8739   -0.0437 C.3       1 <0>         0.0648
      9 C9         -2.0884    1.6518   -1.3208 C.3       1 <0>        -0.1053
     10 C10        -2.6336    3.0595   -1.6674 C.3       1 <0>        -0.1287
     11 C11        -1.4420    3.9840   -1.3147 C.3       1 <0>        -0.1199
     12 C12        -0.8411    3.3568   -0.0398 C.3       1 <0>        -0.1174
     13 C13        -0.0258    0.9984   -0.0709 C.2       1 <0>         0.2029
     14 N1         -0.0080   -0.3464   -0.0810 N.2       1 <0>        -0.4202
     15 C14         1.2592   -0.6823   -0.1107 C.2       1 <0>         0.0892
     16 O1          1.9623    0.4541   -0.1177 O.3       1 <0>         0.1105
     17 N2          1.2085    1.4041   -0.0945 N.2       1 <0>        -0.3396
     18 C15         1.8162   -2.0824   -0.1325 C.3       1 <0>         0.1090
     19 N3          1.9672   -2.5278   -1.5241 N.4       1 <0>        -0.4050
     20 C16         0.6584   -2.6655   -2.1780 C.3       1 <0>        -0.0017
     21 C17         0.8620   -3.0529   -3.6446 C.3       1 <0>         0.0313
     22 N4          1.6180   -4.3111   -3.7158 N.pl3     1 <0>        -0.4700
     23 C18         2.9269   -4.1734   -3.0620 C.3       1 <0>         0.0273
     24 C19         2.7233   -3.7860   -1.5954 C.3       1 <0>         0.0042
     25 C20         1.7609   -4.7325   -5.0327 C.ar      1 <0>         0.2192
     26 C21         1.2729   -5.9773   -5.4247 C.ar      1 <0>         0.1208
     27 N5          1.4060   -6.3710   -6.6768 N.ar      1 <0>        -0.4269
     28 C22         2.0107   -5.5902   -7.5567 C.ar      1 <0>         0.0731
     29 C23         2.5010   -4.3576   -7.1704 C.ar      1 <0>         0.0905
     30 N6          2.3671   -3.9530   -5.9185 N.ar      1 <0>        -0.4639
     31 C24         3.1891   -3.4725   -8.1775 C.3       1 <0>        -0.1102
     32 C25         0.5893   -6.8701   -4.4214 C.3       1 <0>        -0.0959
     33 H1         -5.3658    1.2581    4.5974 H         1 <0>         0.0699
     34 H2         -3.8650    0.9688    5.5410 H         1 <0>         0.0733
     35 H3         -4.6510   -0.3885    4.6654 H         1 <0>         0.0729
     36 H4         -5.0341    2.3546    2.6005 H         1 <0>         0.1286
     37 H5         -3.6818    2.8598    0.6057 H         1 <0>         0.1306
     38 H6         -0.6484    0.1997    1.9884 H         1 <0>         0.1060
     39 H7         -1.9970   -0.2992    3.9873 H         1 <0>         0.1222
     40 H8         -1.4431    1.2516   -2.1167 H         1 <0>         0.0645
     41 H9         -2.8969    0.9364   -1.1099 H         1 <0>         0.0826
     42 H10        -2.8994    3.0973   -2.7341 H         1 <0>         0.0777
     43 H11        -3.5266    3.2668   -1.0595 H         1 <0>         0.0785
     44 H12        -0.7246    3.9917   -2.1485 H         1 <0>         0.0700
     45 H13        -1.8101    5.0055   -1.1382 H         1 <0>         0.0793
     46 H14        -1.2385    3.8450    0.8623 H         1 <0>         0.0846
     47 H15         0.2562    3.4332   -0.0448 H         1 <0>         0.0807
     48 H16         2.7973   -2.0945    0.3648 H         1 <0>         0.1713
     49 H17         1.1287   -2.7588    0.3964 H         1 <0>         0.1727
     50 H18         0.0746   -3.4467   -1.6691 H         1 <0>         0.1467
     51 H19         0.1181   -1.7090   -2.1220 H         1 <0>         0.1363
     52 H20        -0.1171   -3.1844   -4.1284 H         1 <0>         0.1246
     53 H21         1.4216   -2.2581   -4.1595 H         1 <0>         0.0763
     54 H22         3.4672   -5.1299   -3.1180 H         1 <0>         0.1278
     55 H23         3.5107   -3.3923   -3.5710 H         1 <0>         0.0774
     56 H24         3.7019   -3.6536   -1.1109 H         1 <0>         0.1477
     57 H25         2.1633   -4.5801   -1.0798 H         1 <0>         0.1459
     58 H26         2.1219   -5.9173   -8.5799 H         1 <0>         0.1787
     59 H27         3.5085   -2.5403   -7.6887 H         1 <0>         0.0801
     60 H28         2.4924   -3.2375   -8.9956 H         1 <0>         0.0896
     61 H29         4.0687   -3.9937   -8.5833 H         1 <0>         0.0899
     62 H30         0.2755   -7.8023   -4.9140 H         1 <0>         0.0822
     63 H31        -0.2935   -6.3554   -4.0142 H         1 <0>         0.0851
     64 H32         1.2869   -7.1042   -3.6037 H         1 <0>         0.0842
     65 H33         2.5374   -1.7576   -2.0641 H         1 <0>         0.4454
@<TRIPOS>BOND
     1    1    2 1
     2    1   33 1
     3    1   34 1
     4    1   35 1
     5    2    7 ar
     6    2    3 ar
     7    3    4 ar
     8    3   36 1
     9    4    5 ar
    10    4   37 1
    11    5    6 ar
    12    5    8 1
    13    6    7 ar
    14    6   38 1
    15    7   39 1
    16    8   12 1
    17    8    9 1
    18    8   13 1
    19    9   10 1
    20    9   40 1
    21    9   41 1
    22   10   11 1
    23   10   42 1
    24   10   43 1
    25   11   12 1
    26   11   44 1
    27   11   45 1
    28   12   46 1
    29   12   47 1
    30   13   17 2
    31   13   14 1
    32   14   15 2
    33   15   16 1
    34   15   18 1
    35   16   17 1
    36   18   19 1
    37   18   48 1
    38   18   49 1
    39   19   24 1
    40   19   20 1
    41   19   65 1
    42   20   21 1
    43   20   50 1
    44   20   51 1
    45   21   22 1
    46   21   52 1
    47   21   53 1
    48   22   23 1
    49   22   25 1
    50   23   24 1
    51   23   54 1
    52   23   55 1
    53   24   56 1
    54   24   57 1
    55   25   30 ar
    56   25   26 ar
    57   26   27 ar
    58   26   32 1
    59   27   28 ar
    60   28   29 ar
    61   28   58 1
    62   29   30 ar
    63   29   31 1
    64   31   59 1
    65   31   60 1
    66   31   61 1
    67   32   62 1
    68   32   63 1
    69   32   64 1
@<TRIPOS>MOLECULE
ZINC39590602
   46    50     0     0     0
SMALL
USER_CHARGES

@<TRIPOS>ATOM
      1 C1         -0.0167    1.3790    0.0096 C.ar      1 <0>        -0.0992
      2 C2          1.1687    2.0920    0.0021 C.ar      1 <0>        -0.1202
      3 C3          2.3774    1.4261   -0.0130 C.ar      1 <0>        -0.0844
      4 C4          2.4023    0.0328   -0.0207 C.ar      1 <0>        -0.0476
      5 C5          1.2050   -0.6804   -0.0131 C.ar      1 <0>        -0.0962
      6 C6          0.0021   -0.0041    0.0020 C.ar      1 <0>        -0.1185
      7 C7          3.6987   -0.6887   -0.0375 C.2       1 <0>         0.0236
      8 C8          3.8321   -2.0290   -0.0514 C.2       1 <0>        -0.1347
      9 C9          5.3350   -2.2448   -0.0649 C.3       1 <0>        -0.0398
     10 H1          5.6537   -2.7885    0.8244 H         1 <0>         0.1614
     11 N1          5.8710   -0.8736   -0.0558 N.2       1 <0>        -0.1430
     12 N2          4.9187   -0.0905   -0.0469 N.2       1 <0>        -0.1297
     13 C10         5.7628   -2.9875   -1.3322 C.3       1 <0>         0.2519
     14 H2          5.5563   -2.3769   -2.2112 H         1 <0>         0.1612
     15 N3          5.0542   -4.2647   -1.4297 N.2       1 <0>        -0.0935
     16 N4          5.8298   -5.2186   -1.4299 N.2       1 <0>        -0.1003
     17 C11         7.2247   -4.7858   -1.3327 C.3       1 <0>         0.1670
     18 H3          7.7798   -5.1114   -2.2124 H         1 <0>         0.1655
     19 N5          7.1986   -3.3126   -1.2679 N.pl3     1 <0>        -0.4161
     20 N6          8.1963   -2.5001   -1.1761 N.2       1 <0>        -0.0471
     21 C12         9.4212   -2.9679   -1.1299 C.2       1 <0>        -0.0597
     22 C13        10.5022   -2.0875   -1.0305 C.2       1 <0>         0.1673
     23 C14        11.8578   -2.4177   -0.9765 C.ar      1 <0>        -0.1797
     24 C15        12.5396   -3.6527   -1.0018 C.ar      1 <0>        -0.0091
     25 C16        13.8956   -3.6750   -0.9331 C.ar      1 <0>        -0.1577
     26 C17        14.6424   -2.4987   -0.8373 C.ar      1 <0>         0.0361
     27 C18        14.0534   -1.2781   -0.8079 C.ar      1 <0>        -0.2024
     28 C19        12.6397   -1.1751   -0.8756 C.ar      1 <0>         0.3086
     29 N7         11.8404   -0.1265   -0.8658 N.pl3     1 <0>        -0.6092
     30 C20        10.4488   -0.5771   -0.9654 C.3       1 <0>         0.0737
     31 S1          7.9841   -5.4640    0.1686 S.3       1 <0>        -0.1688
     32 H4         -0.9603    1.9042    0.0260 H         1 <0>         0.1296
     33 H5          1.1482    3.1718    0.0078 H         1 <0>         0.1309
     34 H6          3.3023    1.9837   -0.0192 H         1 <0>         0.1334
     35 H7          1.2185   -1.7603   -0.0194 H         1 <0>         0.1261
     36 H8         -0.9264   -0.5557    0.0083 H         1 <0>         0.1315
     37 H9          3.0520   -2.7759   -0.0523 H         1 <0>         0.1884
     38 H10         9.5942   -4.0332   -1.1686 H         1 <0>         0.1625
     39 H11        11.9853   -4.5767   -1.0751 H         1 <0>         0.1508
     40 H12        14.4088   -4.6250   -0.9528 H         1 <0>         0.1506
     41 H13        15.7191   -2.5634   -0.7847 H         1 <0>         0.1554
     42 H14        14.6584   -0.3866   -0.7329 H         1 <0>         0.1555
     43 H15         9.9871   -0.1786   -1.8688 H         1 <0>         0.1691
     44 H16         9.8895   -0.2588   -0.0857 H         1 <0>         0.1714
     45 H17         7.9120   -6.7960   -0.0035 H         1 <0>         0.1346
     46 H18        12.1280    0.7980   -0.8055 H         1 <0>         0.4508
@<TRIPOS>BOND
     1    1    6 ar
     2    1    2 ar
     3    1   32 1
     4    2    3 ar
     5    2   33 1
     6    3    4 ar
     7    3   34 1
     8    4    5 ar
     9    4    7 1
    10    5    6 ar
    11    5   35 1
    12    6   36 1
    13    7   12 1
    14    7    8 2
    15    8    9 1
    16    8   37 1
    17    9   10 1
    18    9   11 1
    19    9   13 1
    20   11   12 2
    21   13   14 1
    22   13   19 1
    23   13   15 1
    24   15   16 2
    25   16   17 1
    26   17   18 1
    27   17   19 1
    28   17   31 1
    29   19   20 1
    30   20   21 2
    31   21   22 1
    32   21   38 1
    33   22   30 1
    34   22   23 2
    35   23   28 ar
    36   23   24 ar
    37   24   25 ar
    38   24   39 1
    39   25   26 ar
    40   25   40 1
    41   26   27 ar
    42   26   41 1
    43   27   28 ar
    44   27   42 1
    45   28   29 2
    46   29   30 1
    47   29   46 1
    48   30   43 1
    49   30   44 1
    50   31   45 1
@<TRIPOS>MOLECULE
ZINC15143824
   53    58     0     0     0
SMALL
USER_CHARGES

@<TRIPOS>ATOM
      1 C1          2.4978   -0.3598    0.9750 C.3       1 <0>        -0.0854
      2 C2          1.1816   -0.8770    0.4541 C.ar      1 <0>         0.3517
      3 N1          1.1463   -1.4883   -0.7166 N.ar      1 <0>        -0.5384
      4 C3          0.0225   -1.9646   -1.2291 C.ar      1 <0>         0.4747
      5 C4         -1.1869   -1.8141   -0.4966 C.ar      1 <0>        -0.1798
      6 C5         -2.5411   -2.2593   -0.8644 C.2       1 <0>        -0.1114
      7 C6         -3.5255   -1.9928    0.0089 C.2       1 <0>        -0.1612
      8 S1         -2.7317   -1.1490    1.3582 S.3       1 <0>         0.1580
      9 C7         -1.0710   -1.1542    0.7400 C.ar      1 <0>         0.1207
     10 N2          0.0925   -0.7137    1.1800 N.ar      1 <0>        -0.4762
     11 C8         -4.8628   -2.4878   -0.4733 C.3       1 <0>        -0.0404
     12 C9         -4.6635   -2.7320   -1.9853 C.3       1 <0>        -0.1182
     13 C10        -3.1471   -2.9967   -2.0621 C.3       1 <0>        -0.0517
     14 N3          0.0247   -2.5984   -2.4585 N.pl3     1 <0>        -0.6586
     15 C11         0.1477   -4.0610   -2.5535 C.3       1 <0>         0.1537
     16 C12         1.2714   -4.3918   -3.5415 C.3       1 <0>         0.0400
     17 N4          1.0168   -3.7058   -4.8153 N.3       1 <0>        -0.5388
     18 C13         1.0374   -2.2465   -4.6480 C.3       1 <0>         0.0300
     19 C14        -0.1021   -1.8283   -3.7051 C.3       1 <0>         0.1566
     20 C15         1.9760   -4.1314   -5.8433 C.3       1 <0>         0.0735
     21 C16         1.5409   -3.6031   -7.1859 C.2       1 <0>         0.1964
     22 C17         2.3142   -2.6835   -7.8621 C.2       1 <0>        -0.2198
     23 C18         1.8950   -2.2063   -9.1042 C.2       1 <0>         0.5262
     24 O1          2.5761   -1.3921   -9.7076 O.2       1 <0>        -0.4342
     25 N5          0.7217   -2.6513   -9.6450 N.am      1 <0>        -0.4327
     26 C19         0.1787   -2.2782  -10.8510 C.2       1 <0>         0.0377
     27 C20        -0.9796   -2.7867  -11.2707 C.2       1 <0>        -0.1389
     28 S2         -1.4064   -3.8828   -9.9268 S.3       1 <0>         0.3108
     29 C21         0.0165   -3.5638   -8.9064 C.cat     1 <0>         0.3124
     30 N6          0.4064   -4.0200   -7.7422 N.pl3     1 <0>        -0.4724
     31 H1          2.9871   -1.1372    1.5617 H         1 <0>         0.0921
     32 H2          3.1361   -0.0813    0.1365 H         1 <0>         0.0894
     33 H3          2.3220    0.5133    1.6035 H         1 <0>         0.0922
     34 H4         -5.1285   -3.4173    0.0303 H         1 <0>         0.0932
     35 H5         -5.6304   -1.7318   -0.3081 H         1 <0>         0.0868
     36 H6         -5.2290   -3.6024   -2.3179 H         1 <0>         0.0870
     37 H7         -4.9351   -1.8481   -2.5625 H         1 <0>         0.0774
     38 H8         -2.7418   -2.6004   -2.9931 H         1 <0>         0.0721
     39 H9         -2.9467   -4.0655   -1.9875 H         1 <0>         0.0786
     40 H10         0.3888   -4.4726   -1.5735 H         1 <0>         0.0796
     41 H11        -0.7908   -4.4849   -2.9110 H         1 <0>         0.0711
     42 H12         2.2250   -4.0579   -3.1328 H         1 <0>         0.0566
     43 H13         1.3037   -5.4685   -3.7084 H         1 <0>         0.0942
     44 H14         1.9943   -1.9424   -4.2239 H         1 <0>         0.0601
     45 H15         0.9000   -1.7673   -5.6173 H         1 <0>         0.0749
     46 H16        -1.0640   -2.0417   -4.1712 H         1 <0>         0.0669
     47 H17        -0.0261   -0.7631   -3.4868 H         1 <0>         0.0775
     48 H18         2.9645   -3.7405   -5.6020 H         1 <0>         0.0992
     49 H19         2.0140   -5.2202   -5.8762 H         1 <0>         0.1248
     50 H20         3.2408   -2.3336   -7.4316 H         1 <0>         0.2041
     51 H21         0.6988   -1.5610  -11.4685 H         1 <0>         0.2202
     52 H22        -1.5195   -2.5874  -12.1846 H         1 <0>         0.2509
     53 H23        -0.1427   -4.6698   -7.2762 H         1 <0>         0.4668
@<TRIPOS>BOND
     1    1    2 1
     2    1   31 1
     3    1   32 1
     4    1   33 1
     5    2   10 ar
     6    2    3 ar
     7    3    4 ar
     8    4    5 ar
     9    4   14 1
    10    5    9 ar
    11    5    6 1
    12    6   13 1
    13    6    7 2
    14    7    8 1
    15    7   11 1
    16    8    9 1
    17    9   10 ar
    18   11   12 1
    19   11   34 1
    20   11   35 1
    21   12   13 1
    22   12   36 1
    23   12   37 1
    24   13   38 1
    25   13   39 1
    26   14   19 1
    27   14   15 1
    28   15   16 1
    29   15   40 1
    30   15   41 1
    31   16   17 1
    32   16   42 1
    33   16   43 1
    34   17   18 1
    35   17   20 1
    36   18   19 1
    37   18   44 1
    38   18   45 1
    39   19   46 1
    40   19   47 1
    41   20   21 1
    42   20   48 1
    43   20   49 1
    44   21   30 1
    45   21   22 2
    46   22   23 1
    47   22   50 1
    48   23   24 2
    49   23   25 am
    50   25   29 1
    51   25   26 1
    52   26   27 2
    53   26   51 1
    54   27   28 1
    55   27   52 1
    56   28   29 1
    57   29   30 2
    58   30   53 1
@<TRIPOS>MOLECULE
ZINC66465823
   55    58     0     0     0
SMALL
USER_CHARGES

@<TRIPOS>ATOM
      1 C1          0.2059   -0.1344    3.5740 C.3       1 <0>        -0.1841
      2 C2          0.3232    0.4641    2.1709 C.3       1 <0>         0.0216
      3 H1          1.0619    1.2656    2.1615 H         1 <0>         0.1365
      4 C3         -1.0523    0.9929    1.6934 C.3       1 <0>        -0.1386
      5 C4         -0.8871    0.9482    0.1515 C.3       1 <0>        -0.1380
      6 C5         -0.0271   -0.3139   -0.0696 C.3       1 <0>         0.0244
      7 H2         -0.6673   -1.1592   -0.3223 H         1 <0>         0.1404
      8 N1          0.6878   -0.5834    1.1933 N.4       1 <0>        -0.3865
      9 C6          2.1378   -0.5577    0.9589 C.3       1 <0>        -0.0137
     10 C7          2.8700   -0.9239    2.2514 C.3       1 <0>         0.0259
     11 N2          4.3115   -1.0226    1.9865 N.3       1 <0>        -0.5301
     12 C8          4.8699    0.2854    1.6186 C.3       1 <0>         0.0313
     13 C9          6.3265    0.1091    1.1765 C.3       1 <0>         0.1279
     14 N3          7.0545   -0.6014    2.2388 N.pl3     1 <0>        -0.5577
     15 C10         6.4826   -1.8536    2.7567 C.3       1 <0>         0.1245
     16 C11         5.0198   -1.6001    3.1366 C.3       1 <0>         0.0413
     17 C12         8.2429   -0.1066    2.7360 C.2       1 <0>         0.4294
     18 N4          8.8863    0.9872    2.3964 N.2       1 <0>        -0.5886
     19 C13        10.0521    1.3520    2.9741 C.ar      1 <0>         0.1847
     20 C14        10.8404    2.4941    2.7033 C.ar      1 <0>        -0.0855
     21 C15        12.0077    2.7172    3.3861 C.ar      1 <0>        -0.0355
     22 C16        12.4568    1.8379    4.3605 C.ar      1 <0>        -0.0575
     23 C17        11.7105    0.7103    4.6510 C.ar      1 <0>         0.0278
     24 C18        10.5402    0.4792    3.9727 C.ar      1 <0>        -0.1870
     25 S1          9.2941   -0.7867    4.0114 S.3       1 <0>         0.0285
     26 N5         13.7220    2.1035    5.0816 N.pl3     1 <0>         0.0380
     27 O1         14.3697    3.0909    4.8225 O.2       1 <0>        -0.1487
     28 O2         14.1076    1.3330    5.9297 O.3       1 <0>        -0.1565
     29 C19         0.9785   -0.0678   -1.1962 C.3       1 <0>        -0.1814
     30 H3          1.1686   -0.5485    3.8740 H         1 <0>         0.0817
     31 H4         -0.0899    0.6439    4.2775 H         1 <0>         0.1072
     32 H5         -0.5444   -0.9251    3.5702 H         1 <0>         0.0840
     33 H6         -1.8580    0.3349    2.0190 H         1 <0>         0.1006
     34 H7         -1.2197    2.0131    2.0388 H         1 <0>         0.1167
     35 H8         -1.8560    0.8449   -0.3371 H         1 <0>         0.1142
     36 H9         -0.3667    1.8366   -0.2063 H         1 <0>         0.0998
     37 H10         2.3928   -1.2768    0.1805 H         1 <0>         0.1448
     38 H11         2.4370    0.4416    0.6424 H         1 <0>         0.1300
     39 H12         2.6903   -0.1538    3.0015 H         1 <0>         0.0631
     40 H13         2.5016   -1.8818    2.6187 H         1 <0>         0.0992
     41 H14         4.2902    0.7111    0.7996 H         1 <0>         0.0932
     42 H15         4.8293    0.9532    2.4791 H         1 <0>         0.0525
     43 H16         6.3618   -0.4732    0.2558 H         1 <0>         0.0886
     44 H17         6.7802    1.0866    1.0124 H         1 <0>         0.1081
     45 H18         6.5328   -2.6246    1.9878 H         1 <0>         0.0977
     46 H19         7.0394   -2.1738    3.6373 H         1 <0>         0.0957
     47 H20         4.9771   -0.9060    3.9759 H         1 <0>         0.0536
     48 H21         4.5488   -2.5417    3.4185 H         1 <0>         0.1042
     49 H22        10.5193    3.1982    1.9500 H         1 <0>         0.1548
     50 H23        12.5912    3.5974    3.1601 H         1 <0>         0.1633
     51 H24        12.0464    0.0163    5.4072 H         1 <0>         0.1616
     52 H25         1.6279    0.7655   -0.9279 H         1 <0>         0.0806
     53 H26         1.5807   -0.9636   -1.3477 H         1 <0>         0.0848
     54 H27         0.4433    0.1700   -2.1154 H         1 <0>         0.1041
     55 H28         0.4186   -1.4884    1.5490 H         1 <0>         0.4233
@<TRIPOS>BOND
     1    1    2 1
     2    1   30 1
     3    1   31 1
     4    1   32 1
     5    2    3 1
     6    2    8 1
     7    2    4 1
     8    4    5 1
     9    4   33 1
    10    4   34 1
    11    5    6 1
    12    5   35 1
    13    5   36 1
    14    6    7 1
    15    6    8 1
    16    6   29 1
    17    8    9 1
    18    8   55 1
    19    9   10 1
    20    9   37 1
    21    9   38 1
    22   10   11 1
    23   10   39 1
    24   10   40 1
    25   11   16 1
    26   11   12 1
    27   12   13 1
    28   12   41 1
    29   12   42 1
    30   13   14 1
    31   13   43 1
    32   13   44 1
    33   14   15 1
    34   14   17 1
    35   15   16 1
    36   15   45 1
    37   15   46 1
    38   16   47 1
    39   16   48 1
    40   17   25 1
    41   17   18 2
    42   18   19 1
    43   19   24 ar
    44   19   20 ar
    45   20   21 ar
    46   20   49 1
    47   21   22 ar
    48   21   50 1
    49   22   23 ar
    50   22   26 1
    51   23   24 ar
    52   23   51 1
    53   24   25 1
    54   26   27 2
    55   26   28 1
    56   29   52 1
    57   29   53 1
    58   29   54 1
@<TRIPOS>MOLECULE
ZINC02728840
   58    60     0     0     0
SMALL
USER_CHARGES
4-[3-[(4-chloro-3,5-dimethyl-pyrazol-1-yl)methyl]benzoyl]amino-N-isobutyl-2-methyl-pyrazole-3-carboxamide
@<TRIPOS>ATOM
      1 C1        -10.6598    7.9873    4.1327 C.3       1 <0>        -0.0769
      2 C2        -10.3996    7.0121    3.0136 C.2       1 <0>         0.0951
      3 C3        -10.6637    5.6383    3.0446 C.2       1 <0>        -0.1895
      4 C4        -10.2976    5.1170    1.8501 C.2       1 <0>         0.1093
      5 N1         -9.8102    6.1242    1.0939 N.pl3     1 <0>        -0.3608
      6 N2         -9.8883    7.3040    1.8451 N.2       1 <0>        -0.2816
      7 C5         -9.2965    6.0050   -0.2729 C.3       1 <0>         0.1763
      8 C6         -7.8165    5.7245   -0.2306 C.ar      1 <0>        -0.1262
      9 C7         -6.9146    6.7740   -0.2302 C.ar      1 <0>        -0.0575
     10 C8         -5.5543    6.5253   -0.1916 C.ar      1 <0>        -0.1242
     11 C9         -5.0882    5.2274   -0.1476 C.ar      1 <0>        -0.0730
     12 C10        -5.9923    4.1640   -0.1536 C.ar      1 <0>        -0.1367
     13 C11        -7.3638    4.4221   -0.1927 C.ar      1 <0>        -0.0354
     14 C12        -5.5000    2.7709   -0.1124 C.2       1 <0>         0.5658
     15 O1         -6.2898    1.8469   -0.1126 O.2       1 <0>        -0.5111
     16 N3         -4.1753    2.5252   -0.0746 N.am      1 <0>        -0.6338
     17 C13        -3.7105    1.2097   -0.0357 C.2       1 <0>         0.0851
     18 C14        -4.4773    0.0335   -0.0324 C.2       1 <0>         0.0112
     19 N4         -3.6554   -0.9816    0.0167 N.2       1 <0>        -0.2623
     20 N5         -2.4331   -0.5890    0.0402 N.pl3     1 <0>        -0.2665
     21 C15        -2.3869    0.7813    0.0058 C.2       1 <0>        -0.0756
     22 C16        -1.1873    1.6238    0.0169 C.2       1 <0>         0.5923
     23 O2         -0.7654    2.0955   -1.0225 O.2       1 <0>        -0.5138
     24 N6         -0.5517    1.8759    1.1783 N.am      1 <0>        -0.7165
     25 C17         0.7092    2.6219    1.1764 C.3       1 <0>         0.1198
     26 C18         1.2204    2.7631    2.6115 C.3       1 <0>        -0.1088
     27 C19         1.5688    1.3808    3.1672 C.3       1 <0>        -0.1512
     28 C20         2.4692    3.6471    2.6233 C.3       1 <0>        -0.1466
     29 C21        -1.2648   -1.4712    0.0954 C.3       1 <0>         0.0898
     30 C22       -10.4106    3.6715    1.4392 C.3       1 <0>        -0.1006
     31 Cl1       -11.3463    4.7591    4.3768 Cl        1 <0>        -0.0401
     32 H1        -11.6656    8.3953    4.0326 H         1 <0>         0.0819
     33 H2        -10.5695    7.4742    5.0901 H         1 <0>         0.0812
     34 H3         -9.9325    8.7978    4.0848 H         1 <0>         0.0771
     35 H4         -9.4746    6.9364   -0.8104 H         1 <0>         0.1118
     36 H5         -9.8068    5.1879   -0.7829 H         1 <0>         0.1083
     37 H6         -7.2743    7.7919   -0.2607 H         1 <0>         0.1343
     38 H7         -4.8557    7.3489   -0.1915 H         1 <0>         0.1361
     39 H8         -4.0261    5.0346   -0.1130 H         1 <0>         0.1270
     40 H9         -8.0687    3.6039   -0.1938 H         1 <0>         0.1406
     41 H10        -3.5451    3.2625   -0.0745 H         1 <0>         0.4112
     42 H11        -5.5555   -0.0224   -0.0603 H         1 <0>         0.2087
     43 H12        -0.9270    1.5600    2.0152 H         1 <0>         0.4047
     44 H13         1.4471    2.0866    0.5788 H         1 <0>         0.0732
     45 H14         0.5452    3.6115    0.7500 H         1 <0>         0.0739
     46 H15         0.4469    3.2188    3.2296 H         1 <0>         0.0783
     47 H16         0.6792    0.7511    3.1587 H         1 <0>         0.0527
     48 H17         2.3424    0.9252    2.5491 H         1 <0>         0.0593
     49 H18         1.9331    1.4815    4.1896 H         1 <0>         0.0614
     50 H19         2.2210    4.6319    2.2275 H         1 <0>         0.0595
     51 H20         2.8334    3.7477    3.6457 H         1 <0>         0.0629
     52 H21         3.2428    3.1915    2.0052 H         1 <0>         0.0597
     53 H22        -1.0572   -1.7347    1.1325 H         1 <0>         0.0885
     54 H23        -1.4663   -2.3771   -0.4763 H         1 <0>         0.1027
     55 H24        -0.4018   -0.9582   -0.3290 H         1 <0>         0.0916
     56 H25        -9.4956    3.1444    1.7094 H         1 <0>         0.0890
     57 H26       -11.2579    3.2138    1.9497 H         1 <0>         0.0917
     58 H27       -10.5599    3.6109    0.3612 H         1 <0>         0.0766
@<TRIPOS>BOND
     1    1    2 1
     2    1   32 1
     3    1   33 1
     4    1   34 1
     5    2    6 2
     6    2    3 1
     7    3    4 2
     8    3   31 1
     9    4    5 1
    10    4   30 1
    11    5    6 1
    12    5    7 1
    13    7    8 1
    14    7   35 1
    15    7   36 1
    16    8   13 ar
    17    8    9 ar
    18    9   10 ar
    19    9   37 1
    20   10   11 ar
    21   10   38 1
    22   11   12 ar
    23   11   39 1
    24   12   13 ar
    25   12   14 1
    26   13   40 1
    27   14   15 2
    28   14   16 am
    29   16   17 1
    30   16   41 1
    31   17   21 2
    32   17   18 1
    33   18   19 2
    34   18   42 1
    35   19   20 1
    36   20   21 1
    37   20   29 1
    38   21   22 1
    39   22   23 2
    40   22   24 am
    41   24   25 1
    42   24   43 1
    43   25   26 1
    44   25   44 1
    45   25   45 1
    46   26   27 1
    47   26   28 1
    48   26   46 1
    49   27   47 1
    50   27   48 1
    51   27   49 1
    52   28   50 1
    53   28   51 1
    54   28   52 1
    55   29   53 1
    56   29   54 1
    57   29   55 1
    58   30   56 1
    59   30   57 1
    60   30   58 1
@<TRIPOS>MOLECULE
ZINC13021274
   63    65     0     0     0
SMALL
USER_CHARGES
N-(2,6-difluorophenyl)-2-[ethyl-[2-[(5R,9S)-7,7,9-trimethyl-1,3-dioxo-2,4-diazaspiro[4.5]decan-2-yl]acetyl]amino]acetamide
@<TRIPOS>ATOM
      1 C1         -6.6427   -2.2726    0.9963 C.3       1 <0>        -0.1752
      2 C2         -6.9672   -0.7792    1.0695 C.3       1 <0>         0.1017
      3 N1         -5.7722   -0.0396    1.4833 N.am      1 <0>        -0.5934
      4 C3         -5.5132    0.1971    2.9057 C.3       1 <0>         0.1043
      5 C4         -6.1538    1.4956    3.3236 C.2       1 <0>         0.4940
      6 O1         -6.7664    2.1582    2.5131 O.2       1 <0>        -0.4928
      7 N2         -6.0459    1.9207    4.5981 N.am      1 <0>        -0.6739
      8 C5         -6.7357    3.0674    5.0151 C.ar      1 <0>         0.0695
      9 C6         -6.6924    4.2246    4.2465 C.ar      1 <0>         0.1385
     10 C7         -7.3789    5.3527    4.6588 C.ar      1 <0>        -0.1524
     11 C8         -8.0988    5.3333    5.8391 C.ar      1 <0>        -0.0668
     12 C9         -8.1396    4.1858    6.6094 C.ar      1 <0>        -0.1519
     13 C10        -7.4601    3.0520    6.2012 C.ar      1 <0>         0.1120
     14 F1         -7.5002    1.9314    6.9547 F         1 <0>        -0.1274
     15 F2         -5.9851    4.2462    3.0957 F         1 <0>        -0.1107
     16 C11        -4.9112    0.4231    0.5555 C.2       1 <0>         0.5133
     17 O2         -3.9219    1.0355    0.8980 O.2       1 <0>        -0.5203
     18 C12        -5.1776    0.1797   -0.9077 C.3       1 <0>         0.1023
     19 N3         -4.1040    0.7772   -1.7056 N.am      1 <0>        -0.5633
     20 C13        -2.9755    0.1303   -2.0637 C.2       1 <0>         0.5379
     21 O3         -2.6680   -1.0116   -1.7969 O.2       1 <0>        -0.4609
     22 C14        -2.1785    1.1273   -2.8734 C.3       1 <0>         0.1311
     23 C15        -0.8392    1.4084   -2.2011 C.3       1 <0>        -0.1098
     24 C16        -0.0610    2.4413   -3.0202 C.3       1 <0>        -0.0920
     25 H1         -0.6298    3.3698   -3.0691 H         1 <0>         0.0753
     26 C17         0.1624    1.9046   -4.4355 C.3       1 <0>        -0.1085
     27 C18        -1.1896    1.6503   -5.1051 C.3       1 <0>        -0.0604
     28 C19        -1.9723    0.6143   -4.2943 C.3       1 <0>        -0.1038
     29 C20        -0.9653    1.1241   -6.5242 C.3       1 <0>        -0.1410
     30 C21        -1.9833    2.9569   -5.1650 C.3       1 <0>        -0.1612
     31 C22         1.2915    2.7059   -2.3555 C.3       1 <0>        -0.1474
     32 N4         -3.0157    2.3336   -2.8779 N.am      1 <0>        -0.7183
     33 C23        -4.1195    2.0337   -2.1668 C.2       1 <0>         0.7029
     34 O4         -5.0296    2.8149   -1.9700 O.2       1 <0>        -0.5354
     35 H2         -5.8451   -2.4360    0.2715 H         1 <0>         0.0604
     36 H3         -6.3200   -2.6228    1.9768 H         1 <0>         0.0625
     37 H4         -7.5318   -2.8230    0.6884 H         1 <0>         0.0751
     38 H5         -7.7647   -0.6158    1.7943 H         1 <0>         0.0860
     39 H6         -7.2899   -0.4290    0.0891 H         1 <0>         0.0849
     40 H7         -5.9326   -0.6203    3.4923 H         1 <0>         0.1172
     41 H8         -4.4378    0.2514    3.0751 H         1 <0>         0.1191
     42 H9         -5.4910    1.4331    5.2267 H         1 <0>         0.4157
     43 H10        -7.3494    6.2510    4.0599 H         1 <0>         0.1474
     44 H11        -8.6303    6.2169    6.1605 H         1 <0>         0.1477
     45 H12        -8.7030    4.1744    7.5307 H         1 <0>         0.1483
     46 H13        -6.1302    0.6319   -1.1837 H         1 <0>         0.1300
     47 H14        -5.2165   -0.8932   -1.0963 H         1 <0>         0.1266
     48 H15        -1.0113    1.7962   -1.1971 H         1 <0>         0.0779
     49 H16        -0.2630    0.4851   -2.1395 H         1 <0>         0.0899
     50 H17         0.7242    0.9718   -4.3858 H         1 <0>         0.0706
     51 H18         0.7238    2.6360   -5.0169 H         1 <0>         0.0711
     52 H19        -1.4137   -0.3213   -4.2651 H         1 <0>         0.0912
     53 H20        -2.9416    0.4435   -4.7628 H         1 <0>         0.0763
     54 H21        -1.9285    0.9422   -7.0007 H         1 <0>         0.0576
     55 H22        -0.4080    1.8619   -7.1014 H         1 <0>         0.0605
     56 H23        -0.3995    0.1935   -6.4814 H         1 <0>         0.0586
     57 H24        -1.7466    3.5661   -4.2926 H         1 <0>         0.0622
     58 H25        -1.7186    3.5017   -6.0712 H         1 <0>         0.0655
     59 H26        -3.0502    2.7339   -5.1737 H         1 <0>         0.0652
     60 H27         1.8457    3.4408   -2.9394 H         1 <0>         0.0594
     61 H28         1.1322    3.0882   -1.3472 H         1 <0>         0.0569
     62 H29         1.8600    1.7773   -2.3063 H         1 <0>         0.0582
     63 H30        -2.8137    3.1792   -3.3079 H         1 <0>         0.4420
@<TRIPOS>BOND
     1    1    2 1
     2    1   35 1
     3    1   36 1
     4    1   37 1
     5    2    3 1
     6    2   38 1
     7    2   39 1
     8    3    4 1
     9    3   16 am
    10    4    5 1
    11    4   40 1
    12    4   41 1
    13    5    6 2
    14    5    7 am
    15    7    8 1
    16    7   42 1
    17    8   13 ar
    18    8    9 ar
    19    9   10 ar
    20    9   15 1
    21   10   11 ar
    22   10   43 1
    23   11   12 ar
    24   11   44 1
    25   12   13 ar
    26   12   45 1
    27   13   14 1
    28   16   17 2
    29   16   18 1
    30   18   19 1
    31   18   46 1
    32   18   47 1
    33   19   33 am
    34   19   20 am
    35   20   21 2
    36   20   22 1
    37   22   28 1
    38   22   23 1
    39   22   32 1
    40   23   24 1
    41   23   48 1
    42   23   49 1
    43   24   25 1
    44   24   26 1
    45   24   31 1
    46   26   27 1
    47   26   50 1
    48   26   51 1
    49   27   28 1
    50   27   29 1
    51   27   30 1
    52   28   52 1
    53   28   53 1
    54   29   54 1
    55   29   55 1
    56   29   56 1
    57   30   57 1
    58   30   58 1
    59   30   59 1
    60   31   60 1
    61   31   61 1
    62   31   62 1
    63   32   33 am
    64   32   63 1
    65   33   34 2
@<TRIPOS>MOLECULE
ZINC22217219
   53    56     0     0     0
SMALL
USER_CHARGES
N-(benzylcarbamoyl)-2-[[5-(2-methyl-3-furyl)-4-phenyl-1,2,4-triazol-3-yl]sulfanyl]acetamide
@<TRIPOS>ATOM
      1 C1          3.6988    3.4408   -0.0281 C.3       1 <0>        -0.0965
      2 C2          4.2530    2.0394   -0.0321 C.2       1 <0>         0.0703
      3 C3          3.5194    0.8936   -0.0258 C.2       1 <0>        -0.1416
      4 C4          4.4952   -0.2037   -0.0404 C.2       1 <0>        -0.1993
      5 C5          5.7063    0.3772   -0.0480 C.2       1 <0>        -0.0266
      6 O1          5.5529    1.7100   -0.0395 O.3       1 <0>        -0.1728
      7 C6          2.0452    0.7773   -0.0133 C.2       1 <0>         0.2844
      8 N1          1.1842    1.7681    0.0002 N.2       1 <0>        -0.2771
      9 N2         -0.0157    1.3088    0.0092 N.2       1 <0>        -0.2850
     10 C7          0.0021   -0.0041    0.0020 C.2       1 <0>         0.1471
     11 N3          1.3159   -0.3910   -0.0126 N.pl3     1 <0>        -0.4125
     12 C8          1.8138   -1.7015   -0.0244 C.ar      1 <0>         0.1017
     13 C9          2.5503   -2.1754    1.0528 C.ar      1 <0>        -0.0965
     14 C10         3.0355   -3.4685    1.0404 C.ar      1 <0>        -0.1084
     15 C11         2.7973   -4.2874   -0.0481 C.ar      1 <0>        -0.0984
     16 C12         2.0685   -3.8165   -1.1247 C.ar      1 <0>        -0.1033
     17 C13         1.5762   -2.5260   -1.1158 C.ar      1 <0>        -0.0964
     18 S1         -1.4017   -1.0690    0.0097 S.3       1 <0>         0.0980
     19 C14        -2.7293    0.1612    0.0298 C.3       1 <0>        -0.1552
     20 C15        -4.0634   -0.5397    0.0388 C.2       1 <0>         0.5420
     21 O2         -4.1118   -1.7510    0.0324 O.2       1 <0>        -0.4547
     22 N4         -5.2027    0.1802    0.0541 N.am      1 <0>        -0.6987
     23 C16        -6.3958   -0.4465    0.0622 C.2       1 <0>         0.6979
     24 O3         -6.4444   -1.6609    0.0558 O.2       1 <0>        -0.5327
     25 N5         -7.5351    0.2734    0.0775 N.am      1 <0>        -0.7427
     26 C17        -8.8320   -0.4079    0.0864 C.3       1 <0>         0.1798
     27 C18        -9.9373    0.6163    0.1030 C.ar      1 <0>        -0.1107
     28 C19       -10.4364    1.0750    1.3078 C.ar      1 <0>        -0.0989
     29 C20       -11.4470    2.0181    1.3231 C.ar      1 <0>        -0.1218
     30 C21       -11.9654    2.4950    0.1337 C.ar      1 <0>        -0.1096
     31 C22       -11.4702    2.0321   -1.0711 C.ar      1 <0>        -0.1218
     32 C23       -10.4560    1.0929   -1.0864 C.ar      1 <0>        -0.0989
     33 H1          2.5996    3.4003   -0.0221 H         1 <0>         0.1184
     34 H2          4.0412    3.9731   -0.9278 H         1 <0>         0.0857
     35 H3          4.0511    3.9718    0.8685 H         1 <0>         0.0857
     36 H4          4.2824   -1.2625   -0.0445 H         1 <0>         0.1569
     37 H5          6.6517   -0.1448   -0.0596 H         1 <0>         0.2103
     38 H6          2.7405   -1.5348    1.9012 H         1 <0>         0.1313
     39 H7          3.6051   -3.8391    1.8798 H         1 <0>         0.1377
     40 H8          3.1808   -5.2970   -0.0572 H         1 <0>         0.1352
     41 H9          1.8843   -4.4582   -1.9736 H         1 <0>         0.1381
     42 H10         1.0068   -2.1588   -1.9568 H         1 <0>         0.1328
     43 H11        -2.6370    0.7856    0.9307 H         1 <0>         0.1357
     44 H12        -2.6546    0.7960   -0.8654 H         1 <0>         0.1358
     45 H13        -5.1588    1.2793    0.0600 H         1 <0>         0.4379
     46 H14        -7.4912    1.3725    0.0833 H         1 <0>         0.4202
     47 H15        -8.9243   -1.0324   -0.8144 H         1 <0>         0.0774
     48 H16        -8.9067   -1.0425    0.9818 H         1 <0>         0.0774
     49 H17       -10.0342    0.6994    2.2370 H         1 <0>         0.1243
     50 H18       -11.8342    2.3795    2.2643 H         1 <0>         0.1249
     51 H19       -12.7575    3.2290    0.1456 H         1 <0>         0.1240
     52 H20       -11.8755    2.4044   -2.0003 H         1 <0>         0.1249
     53 H21       -10.0692    0.7312   -2.0276 H         1 <0>         0.1243
@<TRIPOS>BOND
     1    1    2 1
     2    1   33 1
     3    1   34 1
     4    1   35 1
     5    2    6 1
     6    2    3 2
     7    3    4 1
     8    3    7 1
     9    4    5 2
    10    4   36 1
    11    5    6 1
    12    5   37 1
    13    7   11 1
    14    7    8 2
    15    8    9 1
    16    9   10 2
    17   10   11 1
    18   10   18 1
    19   11   12 1
    20   12   17 ar
    21   12   13 ar
    22   13   14 ar
    23   13   38 1
    24   14   15 ar
    25   14   39 1
    26   15   16 ar
    27   15   40 1
    28   16   17 ar
    29   16   41 1
    30   17   42 1
    31   18   19 1
    32   19   20 1
    33   19   43 1
    34   19   44 1
    35   20   21 2
    36   20   22 am
    37   22   23 am
    38   22   45 1
    39   23   24 2
    40   23   25 am
    41   25   26 1
    42   25   46 1
    43   26   27 1
    44   26   47 1
    45   26   48 1
    46   27   32 ar
    47   27   28 ar
    48   28   29 ar
    49   28   49 1
    50   29   30 ar
    51   29   50 1
    52   30   31 ar
    53   30   51 1
    54   31   32 ar
    55   31   52 1
    56   32   53 1
@<TRIPOS>MOLECULE
ZINC39232248
   57    60     0     0     0
SMALL
USER_CHARGES

@<TRIPOS>ATOM
      1 C1          1.7252    2.1588   -3.5506 C.3       1 <0>        -0.1520
      2 C2          1.7824    1.3412   -2.2586 C.3       1 <0>         0.0843
      3 H1          1.2372    1.8523   -1.4652 H         1 <0>         0.1721
      4 C3          1.2042   -0.0384   -2.4863 C.2       1 <0>        -0.0366
      5 C4          2.2093   -0.9029   -2.2274 C.2       1 <0>        -0.1474
      6 C5          3.4038   -0.1487   -1.8451 C.2       1 <0>         0.3189
      7 N1          3.1775    1.1231   -1.8571 N.pl3     1 <0>        -0.5358
      8 C6          2.1154   -2.4043   -2.3172 C.3       1 <0>        -0.1079
      9 C7         -0.1668   -0.3692   -2.9022 C.2       1 <0>         0.5046
     10 C8         -1.1599    0.6968   -3.0686 C.2       1 <0>        -0.5274
     11 C9         -1.7032    1.5995   -1.9857 C.3       1 <0>         0.2813
     12 H2         -0.8945    2.1784   -1.5397 H         1 <0>         0.0567
     13 N2         -2.6623    2.4953   -2.6426 N.am      1 <0>        -0.5977
     14 C10        -2.6964    2.1784   -3.9496 C.2       1 <0>         0.5084
     15 O1         -3.3890    2.7286   -4.7826 O.2       1 <0>        -0.4848
     16 C11        -1.7629    1.0661   -4.2237 C.2       1 <0>         0.2890
     17 O2         -1.5469    0.5042   -5.4353 O.3       1 <0>        -0.6260
     18 C12        -3.4443    3.5484   -1.9903 C.3       1 <0>         0.3281
     19 H3         -3.0353    3.7786   -1.0065 H         1 <0>         0.1078
     20 C13        -4.9039    3.1486   -1.8861 C.2       1 <0>        -0.3266
     21 C14        -5.5663    3.7859   -2.8273 C.2       1 <0>         0.0731
     22 O3         -4.7603    4.5716   -3.5814 O.3       1 <0>        -0.1349
     23 N3         -3.4967    4.7680   -2.8380 N.3       1 <0>        -0.4570
     24 C15        -7.0522    3.6562   -3.0427 C.3       1 <0>        -0.0966
     25 C16        -2.3976    0.7804   -0.9283 C.ar      1 <0>        -0.1208
     26 C17        -3.6187    0.1925   -1.2020 C.ar      1 <0>        -0.0389
     27 C18        -4.2575   -0.5584   -0.2343 C.ar      1 <0>        -0.1482
     28 C19        -3.6724   -0.7229    1.0128 C.ar      1 <0>         0.1276
     29 C20        -2.4469   -0.1324    1.2848 C.ar      1 <0>        -0.2116
     30 C21        -1.8097    0.6133    0.3120 C.ar      1 <0>        -0.0822
     31 O4         -4.2990   -1.4608    1.9666 O.3       1 <0>        -0.3121
     32 C22        -3.6381   -1.5874    3.2272 C.3       1 <0>         0.0892
     33 C23        -4.4758   -2.4336    4.1509 C.2       1 <0>        -0.1585
     34 C24        -3.9135   -3.3760    4.8662 C.2       1 <0>        -0.1697
     35 O5         -0.4775   -1.5282   -3.1085 O.2       1 <0>        -0.4199
     36 H4          2.2520    1.6253   -4.3418 H         1 <0>         0.0788
     37 H5          0.6852    2.3059   -3.8417 H         1 <0>         0.1222
     38 H6          2.1978    3.1276   -3.3887 H         1 <0>         0.0848
     39 H7          4.3514   -0.5970   -1.5853 H         1 <0>         0.2243
     40 H8          2.3817   -2.7254   -3.3242 H         1 <0>         0.0926
     41 H9          2.8006   -2.8548   -1.5991 H         1 <0>         0.0799
     42 H10         1.0960   -2.7186   -2.0932 H         1 <0>         0.1031
     43 H11        -5.3248    2.4619   -1.1666 H         1 <0>         0.1493
     44 H12        -3.5355    5.6014   -2.2706 H         1 <0>         0.3539
     45 H13        -7.5723    4.4087   -2.4500 H         1 <0>         0.0839
     46 H14        -7.2806    3.8035   -4.0983 H         1 <0>         0.0810
     47 H15        -7.3784    2.6625   -2.7356 H         1 <0>         0.0852
     48 H16        -4.0738    0.3209   -2.1730 H         1 <0>         0.1264
     49 H17        -5.2117   -1.0168   -0.4483 H         1 <0>         0.1290
     50 H18        -1.9894   -0.2589    2.2549 H         1 <0>         0.1228
     51 H19        -0.8535    1.0695    0.5217 H         1 <0>         0.1140
     52 H20        -2.6667   -2.0602    3.0823 H         1 <0>         0.0653
     53 H21        -3.4994   -0.5991    3.6656 H         1 <0>         0.0702
     54 H22        -5.5399   -2.2631    4.2231 H         1 <0>         0.1205
     55 H23        -2.8495   -3.5465    4.7941 H         1 <0>         0.0988
     56 H24        -4.5138   -3.9825    5.5282 H         1 <0>         0.1089
     57 H25         3.8195    1.8166   -1.6387 H         1 <0>         0.4567
@<TRIPOS>BOND
     1    1    2 1
     2    1   36 1
     3    1   37 1
     4    1   38 1
     5    2    3 1
     6    2    7 1
     7    2    4 1
     8    4    5 2
     9    4    9 1
    10    5    6 1
    11    5    8 1
    12    6    7 2
    13    6   39 1
    14    7   57 1
    15    8   40 1
    16    8   41 1
    17    8   42 1
    18    9   10 1
    19    9   35 2
    20   10   16 2
    21   10   11 1
    22   11   12 1
    23   11   13 1
    24   11   25 1
    25   13   14 am
    26   13   18 1
    27   14   15 2
    28   14   16 1
    29   16   17 1
    30   18   19 1
    31   18   23 1
    32   18   20 1
    33   20   21 2
    34   20   43 1
    35   21   22 1
    36   21   24 1
    37   22   23 1
    38   23   44 1
    39   24   45 1
    40   24   46 1
    41   24   47 1
    42   25   30 ar
    43   25   26 ar
    44   26   27 ar
    45   26   48 1
    46   27   28 ar
    47   27   49 1
    48   28   29 ar
    49   28   31 1
    50   29   30 ar
    51   29   50 1
    52   30   51 1
    53   31   32 1
    54   32   33 1
    55   32   52 1
    56   32   53 1
    57   33   34 2
    58   33   54 1
    59   34   55 1
    60   34   56 1
@<TRIPOS>MOLECULE
ZINC58669421
   45    47     0     0     0
SMALL
USER_CHARGES

@<TRIPOS>ATOM
      1 C1          0.0566    3.1863   -0.2519 C.3       1 <0>        -0.0932
      2 C2         -0.0320    1.7271    0.1142 C.2       1 <0>         0.1791
      3 C3         -0.0960    0.6427   -0.7977 C.2       1 <0>        -0.3781
      4 C4         -0.1675   -0.5250   -0.0427 C.2       1 <0>         0.4120
      5 O1         -0.1478   -0.1657    1.2492 O.3       1 <0>        -0.1008
      6 N1         -0.0572    1.2439    1.3198 N.2       1 <0>        -0.3154
      7 N2         -0.2439   -1.8036   -0.5292 N.pl3     1 <0>        -0.7954
      8 C5         -0.0888    0.7341   -2.2599 C.2       1 <0>         0.5569
      9 O2          0.9656    0.7089   -2.8656 O.2       1 <0>        -0.4836
     10 O3         -1.2513    0.8462   -2.9343 O.3       1 <0>        -0.3441
     11 C6         -1.1696    0.9308   -4.3585 C.3       1 <0>         0.1442
     12 C7         -2.5568    1.0502   -4.9350 C.2       1 <0>         0.0792
     13 C8         -3.6548    1.0714   -4.1397 C.2       1 <0>        -0.2133
     14 S1         -4.9477    1.2235   -5.3617 S.3       1 <0>         0.1325
     15 C9         -3.9711    1.2437   -6.7322 C.2       1 <0>         0.2717
     16 N3         -2.7568    1.1444   -6.2362 N.2       1 <0>        -0.5101
     17 N4         -4.3547    1.3457   -8.0658 N.am      1 <0>        -0.4719
     18 C10        -5.7131    1.3314   -8.4068 C.ar      1 <0>         0.1075
     19 C11        -6.3206    2.4819   -8.8929 C.ar      1 <0>        -0.0719
     20 C12        -7.6600    2.4645   -9.2287 C.ar      1 <0>        -0.1016
     21 C13        -8.3963    1.3030   -9.0814 C.ar      1 <0>        -0.0547
     22 C14        -7.7945    0.1562   -8.5974 C.ar      1 <0>        -0.1676
     23 C15        -6.4537    0.1656   -8.2651 C.ar      1 <0>        -0.0584
     24 C16        -8.6006   -1.1070   -8.4381 C.3       1 <0>         0.5096
     25 F1         -9.9196   -0.8725   -8.8413 F         1 <0>        -0.1722
     26 F2         -8.0440   -2.1182   -9.2286 F         1 <0>        -0.1728
     27 F3         -8.5866   -1.5030   -7.0963 F         1 <0>        -0.1717
     28 C17        -3.4191    1.4582   -9.0294 C.2       1 <0>         0.5116
     29 O4         -2.2428    1.3788   -8.7448 O.2       1 <0>        -0.4601
     30 C18        -3.8346    1.6825  -10.4605 C.3       1 <0>        -0.1689
     31 H1          1.1036    3.4750   -0.3436 H         1 <0>         0.0971
     32 H2         -0.4511    3.3540   -1.2018 H         1 <0>         0.0867
     33 H3         -0.4188    3.7853    0.5248 H         1 <0>         0.0915
     34 H4         -0.2519   -1.9585   -1.4868 H         1 <0>         0.4301
     35 H5         -0.2901   -2.5539    0.0838 H         1 <0>         0.4211
     36 H6         -0.5836    1.8064   -4.6374 H         1 <0>         0.0933
     37 H7         -0.6899    0.0332   -4.7488 H         1 <0>         0.0915
     38 H8         -3.7273    1.0125   -3.0638 H         1 <0>         0.2065
     39 H9         -5.7463    3.3893   -9.0077 H         1 <0>         0.1441
     40 H10        -8.1331    3.3589   -9.6063 H         1 <0>         0.1511
     41 H11        -9.4436    1.2920   -9.3447 H         1 <0>         0.1504
     42 H12        -5.9830   -0.7318   -7.8916 H         1 <0>         0.1420
     43 H13        -3.9861    2.7482  -10.6320 H         1 <0>         0.1032
     44 H14        -3.0547    1.3145  -11.1272 H         1 <0>         0.1052
     45 H15        -4.7634    1.1471  -10.6574 H         1 <0>         0.0879
@<TRIPOS>BOND
     1    1    2 1
     2    1   31 1
     3    1   32 1
     4    1   33 1
     5    2    6 2
     6    2    3 1
     7    3    4 2
     8    3    8 1
     9    4    5 1
    10    4    7 1
    11    5    6 1
    12    7   34 1
    13    7   35 1
    14    8    9 2
    15    8   10 1
    16   10   11 1
    17   11   12 1
    18   11   36 1
    19   11   37 1
    20   12   16 1
    21   12   13 2
    22   13   14 1
    23   13   38 1
    24   14   15 1
    25   15   16 2
    26   15   17 1
    27   17   18 1
    28   17   28 am
    29   18   23 ar
    30   18   19 ar
    31   19   20 ar
    32   19   39 1
    33   20   21 ar
    34   20   40 1
    35   21   22 ar
    36   21   41 1
    37   22   23 ar
    38   22   24 1
    39   23   42 1
    40   24   25 1
    41   24   26 1
    42   24   27 1
    43   28   29 2
    44   28   30 1
    45   30   43 1
    46   30   44 1
    47   30   45 1
@<TRIPOS>MOLECULE
ZINC09509247
   54    55     0     0     0
SMALL
USER_CHARGES
4-[2-(4-chloro-2,6-dimethyl-phenoxy)propanoylaminocarbamoyl]-N,N-dimethyl-benzenesulfonamide
@<TRIPOS>ATOM
      1 C1          2.0368    2.5355    1.6168 C.3       1 <0>        -0.1202
      2 C2          0.9971    3.5481    2.0225 C.ar      1 <0>        -0.0827
      3 C3          1.3583    4.6423    2.7846 C.ar      1 <0>        -0.1066
      4 C4          0.4030    5.5695    3.1617 C.ar      1 <0>        -0.0261
      5 C5         -0.9145    5.4058    2.7719 C.ar      1 <0>        -0.1070
      6 C6         -1.2786    4.3157    2.0054 C.ar      1 <0>        -0.0726
      7 C7         -0.3223    3.3850    1.6263 C.ar      1 <0>         0.0872
      8 O1         -0.6787    2.3116    0.8725 O.3       1 <0>        -0.2927
      9 C8         -0.4627    2.4081   -0.5368 C.3       1 <0>         0.0878
     10 H1          0.3853    3.0650   -0.7303 H         1 <0>         0.0984
     11 C9         -1.7139    2.9798   -1.2066 C.3       1 <0>        -0.1816
     12 C10        -0.1750    1.0385   -1.0959 C.2       1 <0>         0.5173
     13 O2         -0.2457    0.0634   -0.3782 O.2       1 <0>        -0.5078
     14 N1          0.1611    0.8973   -2.3934 N.am      1 <0>        -0.5191
     15 N2          0.4286   -0.3760   -2.9131 N.am      1 <0>        -0.5135
     16 C11         0.7646   -0.5172   -4.2107 C.2       1 <0>         0.5590
     17 O3          0.8355    0.4601   -4.9300 O.2       1 <0>        -0.5226
     18 C12         1.0468   -1.8608   -4.7591 C.ar      1 <0>        -0.0741
     19 C13         0.9719   -2.9844   -3.9345 C.ar      1 <0>        -0.1063
     20 C14         1.2314   -4.2359   -4.4538 C.ar      1 <0>        -0.0244
     21 C15         1.5761   -4.3775   -5.7863 C.ar      1 <0>        -0.6537
     22 C16         1.6577   -3.2671   -6.6078 C.ar      1 <0>        -0.0244
     23 C17         1.3951   -2.0106   -6.1024 C.ar      1 <0>        -0.0735
     24 S1          1.9120   -5.9788   -6.4401 S.o2      1 <0>         2.6894
     25 O4          1.2366   -6.9086   -5.6043 O.2       1 <0>        -0.9461
     26 O5          1.6785   -5.9032   -7.8398 O.2       1 <0>        -0.9470
     27 N3          3.5327   -6.2573   -6.2449 N.pl3     1 <0>        -1.0029
     28 C18         4.0244   -6.8926   -5.0199 C.3       1 <0>         0.0899
     29 C19         4.4747   -5.8684   -7.2973 C.3       1 <0>         0.0819
     30 C20        -2.7137    4.1376    1.5816 C.3       1 <0>        -0.1265
     31 Cl1         0.8582    6.9405    4.1245 Cl        1 <0>        -0.0620
     32 H2          2.4777    2.8291    0.6641 H         1 <0>         0.0709
     33 H3          2.8153    2.4890    2.3784 H         1 <0>         0.0756
     34 H4          1.5696    1.5560    1.5145 H         1 <0>         0.0799
     35 H5          2.3861    4.7718    3.0897 H         1 <0>         0.1393
     36 H6         -1.6588    6.1304    3.0675 H         1 <0>         0.1403
     37 H7         -1.8623    4.0093   -0.8805 H         1 <0>         0.0844
     38 H8         -1.5896    2.9559   -2.2892 H         1 <0>         0.0789
     39 H9         -2.5811    2.3816   -0.9271 H         1 <0>         0.0819
     40 H10         0.2177    1.6772   -2.9674 H         1 <0>         0.4346
     41 H11         0.3719   -1.1558   -2.3391 H         1 <0>         0.4342
     42 H12         0.7073   -2.8748   -2.8932 H         1 <0>         0.1388
     43 H13         1.1694   -5.1066   -3.8179 H         1 <0>         0.1508
     44 H14         1.9273   -3.3844   -7.6470 H         1 <0>         0.1518
     45 H15         1.4585   -1.1448   -6.7449 H         1 <0>         0.1515
     46 H16         4.0402   -7.9744   -5.1527 H         1 <0>         0.0649
     47 H17         5.0328   -6.5381   -4.8063 H         1 <0>         0.0768
     48 H18         3.3662   -6.6381   -4.1891 H         1 <0>         0.0728
     49 H19         3.9285   -5.4148   -8.1244 H         1 <0>         0.0869
     50 H20         5.1902   -5.1500   -6.8971 H         1 <0>         0.0645
     51 H21         5.0062   -6.7508   -7.6534 H         1 <0>         0.0708
     52 H22        -3.2700    3.6462    2.3799 H         1 <0>         0.0790
     53 H23        -3.1560    5.1126    1.3775 H         1 <0>         0.0720
     54 H24        -2.7532    3.5249    0.6809 H         1 <0>         0.0819
@<TRIPOS>BOND
     1    1    2 1
     2    1   32 1
     3    1   33 1
     4    1   34 1
     5    2    7 ar
     6    2    3 ar
     7    3    4 ar
     8    3   35 1
     9    4    5 ar
    10    4   31 1
    11    5    6 ar
    12    5   36 1
    13    6    7 ar
    14    6   30 1
    15    7    8 1
    16    8    9 1
    17    9   10 1
    18    9   11 1
    19    9   12 1
    20   11   37 1
    21   11   38 1
    22   11   39 1
    23   12   13 2
    24   12   14 am
    25   14   15 1
    26   14   40 1
    27   15   16 am
    28   15   41 1
    29   16   17 2
    30   16   18 1
    31   18   23 ar
    32   18   19 ar
    33   19   20 ar
    34   19   42 1
    35   20   21 ar
    36   20   43 1
    37   21   22 ar
    38   21   24 1
    39   22   23 ar
    40   22   44 1
    41   23   45 1
    42   24   25 2
    43   24   26 2
    44   24   27 1
    45   27   28 1
    46   27   29 1
    47   28   46 1
    48   28   47 1
    49   28   48 1
    50   29   49 1
    51   29   50 1
    52   29   51 1
    53   30   52 1
    54   30   53 1
    55   30   54 1
@<TRIPOS>MOLECULE
ZINC03493997
   55    57     0     0     0
SMALL
USER_CHARGES
(2R)-2-[3-(4-ethoxyphenyl)-4-oxo-quinazolin-2-yl]sulfanyl-N-(ethylcarbamoyl)propanamide
@<TRIPOS>ATOM
      1 C1          2.2387    2.4998    5.8193 C.3       1 <0>        -0.1659
      2 C2          1.0593    3.2564    5.2049 C.3       1 <0>         0.1312
      3 N1          0.1784    2.3106    4.5152 N.am      1 <0>        -0.7474
      4 C3         -0.9329    2.7541    3.8950 C.2       1 <0>         0.6958
      5 O1         -1.2043    3.9388    3.9080 O.2       1 <0>        -0.5325
      6 N2         -1.7434    1.8840    3.2605 N.am      1 <0>        -0.6986
      7 C4         -2.8518    2.3283    2.6357 C.2       1 <0>         0.5354
      8 O2         -3.1225    3.5099    2.6485 O.2       1 <0>        -0.4536
      9 C5         -3.7547    1.3562    1.9209 C.3       1 <0>        -0.1187
     10 H1         -3.0846    0.5300    1.6411 H         1 <0>         0.1321
     11 C6         -4.7400    0.7462    2.9199 C.3       1 <0>        -0.1516
     12 S1         -4.6707    2.2251    0.6240 S.3       1 <0>         0.1100
     13 C7         -5.5040    0.8655   -0.1254 C.2       1 <0>         0.3619
     14 N3         -5.3038   -0.3347    0.3604 N.2       1 <0>        -0.5286
     15 C8         -5.9088   -1.4193   -0.1641 C.ar      1 <0>         0.1681
     16 C9         -5.6945   -2.7000    0.3543 C.ar      1 <0>        -0.1138
     17 C10        -6.3279   -3.7719   -0.2083 C.ar      1 <0>        -0.0681
     18 C11        -7.1843   -3.6095   -1.2899 C.ar      1 <0>        -0.1401
     19 C12        -7.4141   -2.3697   -1.8192 C.ar      1 <0>        -0.0367
     20 C13        -6.7806   -1.2580   -1.2652 C.ar      1 <0>        -0.1996
     21 C14        -6.9899    0.0969   -1.7922 C.2       1 <0>         0.5541
     22 O3         -7.7287    0.2994   -2.7384 O.2       1 <0>        -0.4910
     23 N4         -6.3341    1.1125   -1.1836 N.am      1 <0>        -0.4791
     24 C15        -6.5033    2.4260   -1.6444 C.ar      1 <0>         0.0443
     25 C16        -5.6622    2.9310   -2.6269 C.ar      1 <0>        -0.0445
     26 C17        -5.8320    4.2230   -3.0834 C.ar      1 <0>        -0.2002
     27 C18        -6.8363    5.0199   -2.5532 C.ar      1 <0>         0.1576
     28 C19        -7.6739    4.5175   -1.5680 C.ar      1 <0>        -0.1415
     29 C20        -7.5082    3.2240   -1.1142 C.ar      1 <0>        -0.0454
     30 O4         -6.9994    6.2939   -2.9990 O.3       1 <0>        -0.3093
     31 C21        -6.1015    6.7457   -4.0147 C.3       1 <0>         0.0491
     32 C22        -6.4371    8.1916   -4.3856 C.3       1 <0>        -0.1556
     33 H2          2.9001    3.2100    6.3372 H         1 <0>         0.0775
     34 H3          2.8007    1.9884    5.0239 H         1 <0>         0.0633
     35 H4          1.8632    1.7571    6.5386 H         1 <0>         0.0634
     36 H5          0.4973    3.7678    6.0003 H         1 <0>         0.0680
     37 H6          1.4348    3.9992    4.4857 H         1 <0>         0.0679
     38 H7          0.4240    1.2384    4.5035 H         1 <0>         0.4182
     39 H8         -1.5002    0.8112    3.2526 H         1 <0>         0.4348
     40 H9         -5.3990    0.0367    2.3982 H         1 <0>         0.1003
     41 H10        -5.3460    1.5453    3.3717 H         1 <0>         0.0695
     42 H11        -4.1833    0.2181    3.7080 H         1 <0>         0.0725
     43 H12        -5.0314   -2.8413    1.1949 H         1 <0>         0.1392
     44 H13        -6.1606   -4.7601    0.1941 H         1 <0>         0.1346
     45 H14        -7.6742   -4.4718   -1.7173 H         1 <0>         0.1337
     46 H15        -8.0815   -2.2525   -2.6603 H         1 <0>         0.1376
     47 H16        -4.8776    2.3122   -3.0366 H         1 <0>         0.1309
     48 H17        -5.1802    4.6147   -3.8503 H         1 <0>         0.1396
     49 H18        -8.4555    5.1383   -1.1556 H         1 <0>         0.1440
     50 H19        -8.1598    2.8332   -0.3467 H         1 <0>         0.1360
     51 H20        -5.0684    6.6934   -3.6405 H         1 <0>         0.0671
     52 H21        -6.2021    6.1062   -4.9040 H         1 <0>         0.0660
     53 H22        -5.7459    8.5394   -5.1675 H         1 <0>         0.0814
     54 H23        -6.3364    8.8311   -3.4962 H         1 <0>         0.0689
     55 H24        -7.4702    8.2438   -4.7597 H         1 <0>         0.0682
@<TRIPOS>BOND
     1    1    2 1
     2    1   33 1
     3    1   34 1
     4    1   35 1
     5    2    3 1
     6    2   36 1
     7    2   37 1
     8    3    4 am
     9    3   38 1
    10    4    5 2
    11    4    6 am
    12    6    7 am
    13    6   39 1
    14    7    8 2
    15    7    9 1
    16    9   10 1
    17    9   11 1
    18    9   12 1
    19   11   40 1
    20   11   41 1
    21   11   42 1
    22   12   13 1
    23   13   23 1
    24   13   14 2
    25   14   15 1
    26   15   20 ar
    27   15   16 ar
    28   16   17 ar
    29   16   43 1
    30   17   18 ar
    31   17   44 1
    32   18   19 ar
    33   18   45 1
    34   19   20 ar
    35   19   46 1
    36   20   21 1
    37   21   22 2
    38   21   23 am
    39   23   24 1
    40   24   29 ar
    41   24   25 ar
    42   25   26 ar
    43   25   47 1
    44   26   27 ar
    45   26   48 1
    46   27   28 ar
    47   27   30 1
    48   28   29 ar
    49   28   49 1
    50   29   50 1
    51   30   31 1
    52   31   32 1
    53   31   51 1
    54   31   52 1
    55   32   53 1
    56   32   54 1
    57   32   55 1
@<TRIPOS>MOLECULE
ZINC35597539
   47    50     0     0     0
SMALL
USER_CHARGES

@<TRIPOS>ATOM
      1 C1         -0.0167    1.3780    0.0096 C.ar      1 <0>        -0.1148
      2 C2          1.1709    2.0861    0.0021 C.ar      1 <0>        -0.0949
      3 C3          2.3773    1.4123   -0.0135 C.ar      1 <0>        -0.1112
      4 C4          2.3967    0.0287   -0.0210 C.ar      1 <0>        -0.0204
      5 C5          1.2083   -0.6792   -0.0130 C.ar      1 <0>        -0.1084
      6 C6          0.0021   -0.0041    0.0020 C.ar      1 <0>        -0.0851
      7 C7          1.2286   -2.1860   -0.0218 C.3       1 <0>         0.1584
      8 N1          1.4887   -2.6787    1.3331 N.am      1 <0>        -0.7086
      9 C8          1.5517   -4.0045    1.5675 C.2       1 <0>         0.6013
     10 O1          1.3925   -4.7922    0.6537 O.2       1 <0>        -0.5035
     11 C9          1.8121   -4.4977    2.9239 C.2       1 <0>        -0.0210
     12 C10         1.9064   -5.8079    3.2969 C.2       1 <0>        -0.1396
     13 C11         2.1627   -5.8171    4.6769 C.2       1 <0>        -0.0882
     14 C12         2.2130   -4.5285    5.0807 C.2       1 <0>        -0.5590
     15 O2          2.0063   -3.7364    4.0207 O.3       1 <0>        -0.1084
     16 S1          2.5076   -3.9805    6.7292 S.o2      1 <0>         2.7212
     17 O3          1.9418   -2.6811    6.8324 O.2       1 <0>        -0.9297
     18 O4          2.1260   -5.0478    7.5862 O.2       1 <0>        -0.9283
     19 N2          4.1447   -3.7988    6.8996 N.pl3     1 <0>        -1.1045
     20 C13         4.8541   -2.7822    6.1189 C.3       1 <0>         0.1607
     21 C14         6.2252   -2.5647    6.7052 C.ar      1 <0>        -0.0964
     22 C15         6.4108   -1.6136    7.6913 C.ar      1 <0>        -0.0852
     23 C16         7.6665   -1.4107    8.2326 C.ar      1 <0>        -0.1010
     24 C17         8.7429   -2.1607    7.7872 C.ar      1 <0>         0.0430
     25 C18         8.5560   -3.1189    6.7939 C.ar      1 <0>         0.0302
     26 C19         7.2935   -3.3207    6.2601 C.ar      1 <0>        -0.0827
     27 O5          9.7553   -3.7158    6.5324 O.3       1 <0>        -0.3073
     28 C20        10.7518   -2.8337    7.0820 C.3       1 <0>         0.2128
     29 O6         10.0593   -2.1575    8.1481 O.3       1 <0>        -0.3070
     30 Cl1         3.9119   -0.8184   -0.0411 Cl        1 <0>        -0.0599
     31 H1         -0.9592    1.9049    0.0259 H         1 <0>         0.1340
     32 H2          1.1556    3.1659    0.0080 H         1 <0>         0.1360
     33 H3          3.3048    1.9655   -0.0201 H         1 <0>         0.1373
     34 H4         -0.9258   -0.5566    0.0079 H         1 <0>         0.1362
     35 H5          0.2643   -2.5603   -0.3656 H         1 <0>         0.0888
     36 H6          2.0139   -2.5349   -0.6923 H         1 <0>         0.0900
     37 H7          1.6155   -2.0509    2.0615 H         1 <0>         0.4100
     38 H8          1.8036   -6.6700    2.6545 H         1 <0>         0.1750
     39 H9          2.2945   -6.6900    5.2991 H         1 <0>         0.1777
     40 H10         4.6340   -4.3656    7.5163 H         1 <0>         0.4262
     41 H11         4.9496   -3.1182    5.0864 H         1 <0>         0.0798
     42 H12         4.2946   -1.8471    6.1464 H         1 <0>         0.1002
     43 H13         5.5730   -1.0275    8.0391 H         1 <0>         0.1451
     44 H14         7.8086   -0.6671    9.0027 H         1 <0>         0.1407
     45 H15         7.1448   -4.0661    5.4929 H         1 <0>         0.1385
     46 H16        11.5941   -3.4040    7.4736 H         1 <0>         0.1346
     47 H17        11.0879   -2.1197    6.3301 H         1 <0>         0.0873
@<TRIPOS>BOND
     1    1    6 ar
     2    1    2 ar
     3    1   31 1
     4    2    3 ar
     5    2   32 1
     6    3    4 ar
     7    3   33 1
     8    4    5 ar
     9    4   30 1
    10    5    6 ar
    11    5    7 1
    12    6   34 1
    13    7    8 1
    14    7   35 1
    15    7   36 1
    16    8    9 am
    17    8   37 1
    18    9   10 2
    19    9   11 1
    20   11   15 1
    21   11   12 2
    22   12   13 1
    23   12   38 1
    24   13   14 2
    25   13   39 1
    26   14   15 1
    27   14   16 1
    28   16   17 2
    29   16   18 2
    30   16   19 1
    31   19   20 1
    32   19   40 1
    33   20   21 1
    34   20   41 1
    35   20   42 1
    36   21   26 ar
    37   21   22 ar
    38   22   23 ar
    39   22   43 1
    40   23   24 ar
    41   23   44 1
    42   24   29 1
    43   24   25 ar
    44   25   26 ar
    45   25   27 1
    46   26   45 1
    47   27   28 1
    48   28   29 1
    49   28   46 1
    50   28   47 1
@<TRIPOS>MOLECULE
ZINC39873243
   55    59     0     0     0
SMALL
USER_CHARGES

@<TRIPOS>ATOM
      1 C1         -0.0184    1.5028    0.0103 C.3       1 <0>        -0.2026
      2 C2          0.0021   -0.0041    0.0020 C.2       1 <0>         0.3965
      3 O1          0.0203   -0.6161    1.0491 O.2       1 <0>        -0.4600
      4 C3         -0.0001   -0.7314   -1.2737 C.ar      1 <0>        -0.1938
      5 C4         -0.0154   -0.0266   -2.4839 C.ar      1 <0>        -0.0398
      6 C5         -0.0174   -0.7072   -3.6683 C.ar      1 <0>        -0.1655
      7 C6         -0.0043   -2.0997   -3.6736 C.ar      1 <0>         0.2079
      8 C7          0.0109   -2.8044   -2.4726 C.ar      1 <0>        -0.1560
      9 C8          0.0189   -2.1318   -1.2837 C.ar      1 <0>        -0.0289
     10 N1         -0.0069   -2.7890   -4.8826 N.am      1 <0>        -0.5339
     11 C9         -0.0002   -4.2522   -5.0440 C.3       1 <0>         0.2297
     12 H1          0.8974   -4.6761   -4.5937 H         1 <0>         0.1287
     13 C10        -0.0036   -4.4992   -6.5169 C.2       1 <0>        -0.2395
     14 C11         0.0094   -5.7469   -7.2874 C.2       1 <0>         0.4573
     15 O2         -0.1504   -6.8443   -6.7830 O.2       1 <0>        -0.4267
     16 C12         0.2352   -5.5453   -8.7411 C.ar      1 <0>        -0.2123
     17 C13         0.4722   -6.6361   -9.5771 C.ar      1 <0>        -0.0312
     18 C14         0.6833   -6.4336  -10.9125 C.ar      1 <0>        -0.1406
     19 C15         0.6629   -5.1483  -11.4360 C.ar      1 <0>        -0.0519
     20 C16         0.4288   -4.0602  -10.6257 C.ar      1 <0>        -0.1339
     21 C17         0.2079   -4.2406   -9.2602 C.ar      1 <0>         0.1408
     22 O3         -0.0298   -3.1585   -8.4844 O.3       1 <0>        -0.1789
     23 C18        -0.0169   -3.2847   -7.1427 C.2       1 <0>         0.0903
     24 C19        -0.0218   -2.2334   -6.1114 C.2       1 <0>         0.5712
     25 O4         -0.0351   -1.0393   -6.3351 O.2       1 <0>        -0.4604
     26 C20        -1.2305   -4.8506   -4.4120 C.ar      1 <0>        -0.1417
     27 C21        -2.4525   -4.2177   -4.5460 C.ar      1 <0>        -0.0531
     28 C22        -3.5817   -4.7640   -3.9672 C.ar      1 <0>        -0.1420
     29 C23        -3.4888   -5.9488   -3.2515 C.ar      1 <0>         0.1445
     30 C24        -2.2616   -6.5821   -3.1190 C.ar      1 <0>        -0.2062
     31 C25        -1.1363   -6.0345   -3.7040 C.ar      1 <0>        -0.0427
     32 O5         -4.5981   -6.4880   -2.6809 O.3       1 <0>        -0.2870
     33 C26        -4.4279   -7.7094   -1.9589 C.3       1 <0>         0.0376
     34 C27        -5.7559   -8.1526   -1.4013 C.2       1 <0>         0.5193
     35 O6         -6.7503   -7.4880   -1.6023 O.2       1 <0>        -0.5161
     36 N2         -5.8386   -9.2876   -0.6792 N.am      1 <0>        -0.8496
     37 H2          1.0042    1.8801    0.0026 H         1 <0>         0.0988
     38 H3         -0.5455    1.8639   -0.8728 H         1 <0>         0.0869
     39 H4         -0.5286    1.8543    0.9071 H         1 <0>         0.0890
     40 H5         -0.0259    1.0534   -2.4808 H         1 <0>         0.1418
     41 H6         -0.0295   -0.1645   -4.6020 H         1 <0>         0.1598
     42 H7          0.0207   -3.8844   -2.4813 H         1 <0>         0.1361
     43 H8          0.0352   -2.6792   -0.3528 H         1 <0>         0.1405
     44 H9          0.4892   -7.6368   -9.1711 H         1 <0>         0.1459
     45 H10         0.8670   -7.2764  -11.5623 H         1 <0>         0.1410
     46 H11         0.8331   -4.9999  -12.4921 H         1 <0>         0.1452
     47 H12         0.4165   -3.0661  -11.0475 H         1 <0>         0.1488
     48 H13        -2.5242   -3.2954   -5.1032 H         1 <0>         0.1225
     49 H14        -4.5358   -4.2689   -4.0715 H         1 <0>         0.1372
     50 H15        -2.1868   -7.5045   -2.5623 H         1 <0>         0.1342
     51 H16        -0.1815   -6.5294   -3.6048 H         1 <0>         0.1333
     52 H17        -4.0410   -8.4768   -2.6294 H         1 <0>         0.0973
     53 H18        -3.7244   -7.5531   -1.1412 H         1 <0>         0.0974
     54 H19        -5.0433   -9.8192   -0.5184 H         1 <0>         0.4039
     55 H20        -6.6934   -9.5729   -0.3203 H         1 <0>         0.4108
@<TRIPOS>BOND
     1    1    2 1
     2    1   37 1
     3    1   38 1
     4    1   39 1
     5    2    3 2
     6    2    4 1
     7    4    9 ar
     8    4    5 ar
     9    5    6 ar
    10    5   40 1
    11    6    7 ar
    12    6   41 1
    13    7    8 ar
    14    7   10 1
    15    8    9 ar
    16    8   42 1
    17    9   43 1
    18   10   24 am
    19   10   11 1
    20   11   12 1
    21   11   13 1
    22   11   26 1
    23   13   23 2
    24   13   14 1
    25   14   15 2
    26   14   16 1
    27   16   21 ar
    28   16   17 ar
    29   17   18 ar
    30   17   44 1
    31   18   19 ar
    32   18   45 1
    33   19   20 ar
    34   19   46 1
    35   20   21 ar
    36   20   47 1
    37   21   22 1
    38   22   23 1
    39   23   24 1
    40   24   25 2
    41   26   31 ar
    42   26   27 ar
    43   27   28 ar
    44   27   48 1
    45   28   29 ar
    46   28   49 1
    47   29   30 ar
    48   29   32 1
    49   30   31 ar
    50   30   50 1
    51   31   51 1
    52   32   33 1
    53   33   34 1
    54   33   52 1
    55   33   53 1
    56   34   35 2
    57   34   36 am
    58   36   54 1
    59   36   55 1
@<TRIPOS>MOLECULE
ZINC39939425
   57    59     0     0     0
SMALL
USER_CHARGES

@<TRIPOS>ATOM
      1 C1         -0.0184    1.5028    0.0103 C.3       1 <0>        -0.1077
      2 C2          0.0021   -0.0041    0.0020 C.ar      1 <0>         0.1929
      3 C3          0.0059   -0.6989   -1.1975 C.ar      1 <0>        -0.2385
      4 C4          0.0249   -2.0845   -1.1608 C.ar      1 <0>         0.1946
      5 N1          0.0386   -2.6990    0.0103 N.ar      1 <0>        -0.5075
      6 C5          0.0345   -2.0049    1.1396 C.ar      1 <0>         0.3039
      7 N2          0.0220   -0.6794    1.1390 N.ar      1 <0>        -0.5352
      8 S1          0.0533   -2.8644    2.6776 S.3       1 <0>         0.0157
      9 C6          0.0411   -1.5421    3.9194 C.3       1 <0>        -0.0732
     10 C7          0.0558   -2.1484    5.2990 C.ar      1 <0>        -0.0478
     11 C8         -1.1373   -2.4471    5.9327 C.ar      1 <0>        -0.1042
     12 C9         -1.1310   -3.0027    7.1955 C.ar      1 <0>        -0.0500
     13 C10         0.0827   -3.2634    7.8337 C.ar      1 <0>        -0.1219
     14 C11         1.2827   -2.9597    7.1887 C.ar      1 <0>        -0.0826
     15 C12         1.2623   -2.4092    5.9239 C.ar      1 <0>        -0.1032
     16 C13         0.0970   -3.8583    9.1871 C.2       1 <0>         0.5644
     17 O1         -0.9496   -4.1213    9.7465 O.2       1 <0>        -0.5253
     18 N3          1.2706   -4.1088    9.8006 N.am      1 <0>        -0.5175
     19 N4          1.2842   -4.6725   11.0832 N.am      1 <0>        -0.4989
     20 C14         2.4577   -4.9231   11.6967 C.2       1 <0>         0.5827
     21 O2          3.5034   -4.6603   11.1378 O.2       1 <0>        -0.5123
     22 C15         2.4721   -5.5215   13.0583 C.2       1 <0>         0.1309
     23 N5          1.4119   -5.8407   13.7309 N.2       1 <0>        -0.4038
     24 C16         1.8306   -6.3992   15.0221 C.3       1 <0>         0.0565
     25 H1          1.4801   -7.4267   15.1193 H         1 <0>         0.1428
     26 C17         3.3429   -6.3616   15.0125 C.2       1 <0>        -0.2236
     27 C18         3.6906   -5.8350   13.8166 C.2       1 <0>        -0.0216
     28 C19         5.1013   -5.6025   13.3403 C.3       1 <0>        -0.1213
     29 C20         4.2427   -6.8086   16.0742 C.2       1 <0>         0.4140
     30 O3          5.4439   -6.7184   15.9293 O.2       1 <0>        -0.4438
     31 C21         3.6783   -7.3815   17.3487 C.3       1 <0>        -0.2012
     32 C22         1.2863   -5.5451   16.1689 C.3       1 <0>        -0.1291
     33 C23         0.0292   -2.8812   -2.4401 C.3       1 <0>        -0.1083
     34 H2          1.0042    1.8801    0.0026 H         1 <0>         0.0878
     35 H3         -0.5455    1.8639   -0.8728 H         1 <0>         0.0837
     36 H4         -0.5286    1.8543    0.9071 H         1 <0>         0.0831
     37 H5         -0.0060   -0.1721   -2.1402 H         1 <0>         0.1494
     38 H6          0.9221   -0.9135    3.7894 H         1 <0>         0.1077
     39 H7         -0.8577   -0.9376    3.7977 H         1 <0>         0.1078
     40 H8         -2.0757   -2.2445    5.4379 H         1 <0>         0.1381
     41 H9         -2.0630   -3.2350    7.6892 H         1 <0>         0.1441
     42 H10         2.2251   -3.1590    7.6771 H         1 <0>         0.1318
     43 H11         2.1902   -2.1776    5.4221 H         1 <0>         0.1373
     44 H12         2.1058   -3.8989    9.3543 H         1 <0>         0.4339
     45 H13         0.4490   -4.8824   11.5296 H         1 <0>         0.4432
     46 H14         5.0803   -5.1638   12.3427 H         1 <0>         0.0978
     47 H15         5.6088   -4.9233   14.0253 H         1 <0>         0.0842
     48 H16         5.6352   -6.5523   13.3083 H         1 <0>         0.0841
     49 H17         2.5896   -7.3823   17.2959 H         1 <0>         0.0851
     50 H18         4.0365   -8.4028   17.4779 H         1 <0>         0.0984
     51 H19         4.0006   -6.7737   18.1942 H         1 <0>         0.0988
     52 H20         0.1967   -5.5490   16.1393 H         1 <0>         0.0792
     53 H21         1.6254   -5.9553   17.1201 H         1 <0>         0.0824
     54 H22         1.6489   -4.5226   16.0642 H         1 <0>         0.0646
     55 H23         1.0578   -3.0593   -2.7536 H         1 <0>         0.0887
     56 H24        -0.4709   -3.8356   -2.2754 H         1 <0>         0.0852
     57 H25        -0.4961   -2.3248   -3.2163 H         1 <0>         0.0839
@<TRIPOS>BOND
     1    1    2 1
     2    1   34 1
     3    1   35 1
     4    1   36 1
     5    2    7 ar
     6    2    3 ar
     7    3    4 ar
     8    3   37 1
     9    4    5 ar
    10    4   33 1
    11    5    6 ar
    12    6    7 ar
    13    6    8 1
    14    8    9 1
    15    9   10 1
    16    9   38 1
    17    9   39 1
    18   10   15 ar
    19   10   11 ar
    20   11   12 ar
    21   11   40 1
    22   12   13 ar
    23   12   41 1
    24   13   14 ar
    25   13   16 1
    26   14   15 ar
    27   14   42 1
    28   15   43 1
    29   16   17 2
    30   16   18 am
    31   18   19 1
    32   18   44 1
    33   19   20 am
    34   19   45 1
    35   20   21 2
    36   20   22 1
    37   22   27 1
    38   22   23 2
    39   23   24 1
    40   24   25 1
    41   24   26 1
    42   24   32 1
    43   26   27 2
    44   26   29 1
    45   27   28 1
    46   28   46 1
    47   28   47 1
    48   28   48 1
    49   29   30 2
    50   29   31 1
    51   31   49 1
    52   31   50 1
    53   31   51 1
    54   32   52 1
    55   32   53 1
    56   32   54 1
    57   33   55 1
    58   33   56 1
    59   33   57 1
@<TRIPOS>MOLECULE
ZINC10107656
   73    77     0     0     0
SMALL
USER_CHARGES
(4-ethoxyphenyl)-[3-(2-ethyl-1-piperidyl)propyl]-dimethyl-BLAHdione
@<TRIPOS>ATOM
      1 C1          1.7199    7.6630    0.0802 C.3       1 <0>        -0.1556
      2 C2          1.8824    6.2299    0.5907 C.3       1 <0>        -0.1494
      3 C3          2.5777    5.3837   -0.4776 C.3       1 <0>         0.0331
      4 H1          2.0248    5.4553   -1.4143 H         1 <0>         0.1379
      5 C4          4.0038    5.8979   -0.6867 C.3       1 <0>        -0.1425
      6 C5          4.7024    5.0358   -1.7418 C.3       1 <0>        -0.1379
      7 C6          4.6906    3.5744   -1.2849 C.3       1 <0>        -0.1463
      8 C7          3.2445    3.1276   -1.0585 C.3       1 <0>        -0.0092
      9 C8          1.2772    3.4969    0.3030 C.3       1 <0>        -0.0029
     10 C9          1.3462    2.0084    0.6501 C.3       1 <0>        -0.1685
     11 C10        -0.0527    1.5028    1.0080 C.3       1 <0>         0.1226
     12 N1          0.0134    0.0775    1.3404 N.am      1 <0>        -0.5540
     13 C11         0.2334   -0.2963    2.6177 C.2       1 <0>         0.6015
     14 O1          0.3761    0.5439    3.4890 O.2       1 <0>        -0.5208
     15 C12         0.2958   -1.6634    2.9337 C.2       1 <0>        -0.1928
     16 C13         0.1287   -2.6040    1.9180 C.2       1 <0>         0.3761
     17 N2          0.2306   -3.8103    2.4693 N.2       1 <0>        -0.4976
     18 C14         0.4519   -3.6951    3.7705 C.2       1 <0>         0.4508
     19 N3          0.4998   -2.3831    4.1014 N.pl3     1 <0>        -0.3494
     20 C15         0.7314   -2.2894    5.4625 C.2       1 <0>        -0.0184
     21 C16         0.8240   -3.5200    5.9581 C.2       1 <0>         0.0881
     22 N4          0.6527   -4.4172    4.9195 N.pl3     1 <0>        -0.4003
     23 C17         0.6798   -5.8151    5.0224 C.ar      1 <0>         0.0675
     24 C18        -0.4673   -6.5531    4.7625 C.ar      1 <0>        -0.0491
     25 C19        -0.4385   -7.9302    4.8590 C.ar      1 <0>        -0.1966
     26 C20         0.7334   -8.5758    5.2257 C.ar      1 <0>         0.1573
     27 C21         1.8783   -7.8387    5.4911 C.ar      1 <0>        -0.1397
     28 C22         1.8523   -6.4619    5.3899 C.ar      1 <0>        -0.0571
     29 O2          0.7597   -9.9315    5.3255 O.3       1 <0>        -0.3084
     30 C23        -0.4551  -10.6269    5.0380 C.3       1 <0>         0.0511
     31 C24        -0.2325  -12.1317    5.2021 C.3       1 <0>        -0.1550
     32 C25         1.0733   -3.8754    7.4012 C.3       1 <0>        -0.0891
     33 N5         -0.0950   -2.1570    0.6243 N.am      1 <0>        -0.5056
     34 C26        -0.1517   -0.8362    0.3686 C.2       1 <0>         0.7121
     35 O3         -0.3531   -0.4608   -0.7703 O.2       1 <0>        -0.5346
     36 C27        -0.2747   -3.1219   -0.4632 C.3       1 <0>         0.0861
     37 H2          1.2073    7.6502   -0.8817 H         1 <0>         0.0661
     38 H3          1.1343    8.2396    0.7963 H         1 <0>         0.0765
     39 H4          2.7023    8.1203   -0.0377 H         1 <0>         0.0679
     40 H5          0.9010    5.8077    0.8068 H         1 <0>         0.0879
     41 H6          2.4842    6.2340    1.4995 H         1 <0>         0.0867
     42 H7          3.9712    6.9332   -1.0261 H         1 <0>         0.1129
     43 H8          4.5532    5.8395    0.2529 H         1 <0>         0.0873
     44 H9          4.1756    5.1247   -2.6919 H         1 <0>         0.0817
     45 H10         5.7324    5.3714   -1.8626 H         1 <0>         0.0940
     46 H11         5.1487    2.9497   -2.0517 H         1 <0>         0.1114
     47 H12         5.2513    3.4793   -0.3551 H         1 <0>         0.0863
     48 H13         3.2334    2.0917   -0.7193 H         1 <0>         0.1297
     49 H14         2.6885    3.2097   -1.9924 H         1 <0>         0.1317
     50 H15         0.6103    3.6412   -0.5470 H         1 <0>         0.1364
     51 H16         0.8983    4.0528    1.1606 H         1 <0>         0.1354
     52 H17         2.0132    1.8641    1.5001 H         1 <0>         0.0929
     53 H18         1.7252    1.4525   -0.2075 H         1 <0>         0.0963
     54 H19        -0.7197    1.6471    0.1580 H         1 <0>         0.1126
     55 H20        -0.4317    2.0587    1.8656 H         1 <0>         0.1110
     56 H21         0.8219   -1.3727    6.0264 H         1 <0>         0.1986
     57 H22        -1.3808   -6.0504    4.4813 H         1 <0>         0.1328
     58 H23        -1.3294   -8.5047    4.6525 H         1 <0>         0.1417
     59 H24         2.7903   -8.3419    5.7765 H         1 <0>         0.1462
     60 H25         2.7435   -5.8881    5.5969 H         1 <0>         0.1386
     61 H26        -1.2338  -10.2977    5.7260 H         1 <0>         0.0667
     62 H27        -0.7616  -10.4146    4.0138 H         1 <0>         0.0667
     63 H28         0.0741  -12.3441    6.2264 H         1 <0>         0.0689
     64 H29        -1.1591  -12.6622    4.9828 H         1 <0>         0.0828
     65 H30         0.5462  -12.4610    4.5141 H         1 <0>         0.0688
     66 H31         2.1463   -3.9540    7.5759 H         1 <0>         0.0921
     67 H32         0.6564   -3.0998    8.0436 H         1 <0>         0.0992
     68 H33         0.5975   -4.8295    7.6278 H         1 <0>         0.0855
     69 H34        -1.3323   -3.3675   -0.5600 H         1 <0>         0.0778
     70 H35         0.0845   -2.6885   -1.3966 H         1 <0>         0.0957
     71 H36         0.2899   -4.0278   -0.2423 H         1 <0>         0.0955
     72 N6          2.6365    3.9805   -0.0154 N.4       1 <0>        -0.3903
     73 H37         3.2143    3.9330    0.8321 H         1 <0>         0.4246
@<TRIPOS>BOND
     1    1    2 1
     2    1   37 1
     3    1   38 1
     4    1   39 1
     5    2    3 1
     6    2   40 1
     7    2   41 1
     8    3    4 1
     9    3    5 1
    10    3   72 1
    11    5    6 1
    12    5   42 1
    13    5   43 1
    14    6    7 1
    15    6   44 1
    16    6   45 1
    17    7    8 1
    18    7   46 1
    19    7   47 1
    20    8   48 1
    21    8   49 1
    22    8   72 1
    23    9   10 1
    24    9   50 1
    25    9   51 1
    26    9   72 1
    27   10   11 1
    28   10   52 1
    29   10   53 1
    30   11   12 1
    31   11   54 1
    32   11   55 1
    33   12   34 am
    34   12   13 am
    35   13   14 2
    36   13   15 1
    37   15   19 1
    38   15   16 2
    39   16   17 1
    40   16   33 1
    41   17   18 2
    42   18   22 1
    43   18   19 1
    44   19   20 1
    45   20   21 2
    46   20   56 1
    47   21   22 1
    48   21   32 1
    49   22   23 1
    50   23   28 ar
    51   23   24 ar
    52   24   25 ar
    53   24   57 1
    54   25   26 ar
    55   25   58 1
    56   26   27 ar
    57   26   29 1
    58   27   28 ar
    59   27   59 1
    60   28   60 1
    61   29   30 1
    62   30   31 1
    63   30   61 1
    64   30   62 1
    65   31   63 1
    66   31   64 1
    67   31   65 1
    68   32   66 1
    69   32   67 1
    70   32   68 1
    71   33   34 am
    72   33   36 1
    73   34   35 2
    74   36   69 1
    75   36   70 1
    76   36   71 1
    77   72   73 1
@<TRIPOS>MOLECULE
ZINC22203261
   66    69     0     0     0
SMALL
USER_CHARGES
3-[2-(diisopropylamino)ethyl]-2-[(6-nitro-4H-1,3-benzodioxin-8-yl)methylsulfanyl]quinazolin-4-one
@<TRIPOS>ATOM
      1 C1         -0.0157    3.5374   -1.0745 C.3       1 <0>        -0.1885
      2 C2         -0.9080    2.6255   -0.2301 C.3       1 <0>         0.0216
      3 C3         -2.3721    3.0277   -0.4188 C.3       1 <0>        -0.2092
      4 N1         -0.7246    1.2312   -0.6548 N.4       1 <0>        -0.3968
      5 C4          0.3844    0.6006    0.0735 C.3       1 <0>        -0.0353
      6 C5          0.0319    0.5089    1.5595 C.3       1 <0>         0.0675
      7 N2          1.1519   -0.0883    2.2911 N.am      1 <0>        -0.5282
      8 C6          1.2067   -1.4303    2.4574 C.2       1 <0>         0.5589
      9 O1          0.3398   -2.1581    2.0096 O.2       1 <0>        -0.4991
     10 C7          2.3546   -1.9761    3.1944 C.ar      1 <0>        -0.1952
     11 C8          2.5054   -3.3445    3.4144 C.ar      1 <0>        -0.0408
     12 C9          3.5908   -3.7992    4.1112 C.ar      1 <0>        -0.1233
     13 C10         4.5421   -2.9132    4.6007 C.ar      1 <0>        -0.0632
     14 C11         4.4187   -1.5674    4.3999 C.ar      1 <0>        -0.1016
     15 C12         3.3202   -1.0713    3.6913 C.ar      1 <0>         0.1543
     16 N3          3.1597    0.2488    3.4699 N.2       1 <0>        -0.4989
     17 C13         2.1305    0.7135    2.8055 C.2       1 <0>         0.3542
     18 S1          2.0026    2.4543    2.5650 S.3       1 <0>        -0.0276
     19 C14         3.5029    3.0005    3.4177 C.3       1 <0>        -0.0435
     20 C15         3.6069    4.5018    3.3394 C.ar      1 <0>        -0.1191
     21 C16         3.0392    5.2860    4.3247 C.ar      1 <0>         0.0019
     22 C17         3.1347    6.6633    4.2536 C.ar      1 <0>        -0.0703
     23 C18         3.7970    7.2585    3.1960 C.ar      1 <0>         0.0039
     24 C19         4.3660    6.4784    2.2071 C.ar      1 <0>        -0.2000
     25 C20         4.2782    5.0968    2.2802 C.ar      1 <0>         0.2065
     26 O2          4.8439    4.3168    1.3207 O.3       1 <0>        -0.3131
     27 C21         5.1928    4.9575    0.0902 C.3       1 <0>         0.2144
     28 O3          5.8988    6.1677    0.3891 O.3       1 <0>        -0.3695
     29 C22         5.0793    7.1382    1.0541 C.3       1 <0>         0.0968
     30 N4          2.5268    7.5018    5.3109 N.pl3     1 <0>         0.0282
     31 O4          1.9428    6.9783    6.2428 O.2       1 <0>        -0.1510
     32 O5          2.6104    8.7154    5.2490 O.3       1 <0>        -0.1493
     33 C23        -0.5169    1.1461   -2.1065 C.3       1 <0>         0.0248
     34 C24        -0.2281   -0.3050   -2.4962 C.3       1 <0>        -0.1877
     35 C25        -1.7756    1.6278   -2.8309 C.3       1 <0>        -0.2012
     36 H1          1.0369    3.2482   -0.9388 H         1 <0>         0.0790
     37 H2         -0.1531    4.5814   -0.7565 H         1 <0>         0.1048
     38 H3         -0.2894    3.4381   -2.1353 H         1 <0>         0.0900
     39 H4         -0.6252    2.6839    0.8313 H         1 <0>         0.1308
     40 H5         -3.0136    2.3721    0.1883 H         1 <0>         0.0839
     41 H6         -2.6458    2.9285   -1.4796 H         1 <0>         0.1067
     42 H7         -2.5094    4.0717   -0.1008 H         1 <0>         0.1073
     43 H8          0.5574   -0.4098   -0.3253 H         1 <0>         0.1464
     44 H9          1.2952    1.2047   -0.0507 H         1 <0>         0.1356
     45 H10        -0.1666    1.5171    1.9521 H         1 <0>         0.1162
     46 H11        -0.8639   -0.1168    1.6859 H         1 <0>         0.1290
     47 H12         1.7706   -4.0404    3.0374 H         1 <0>         0.1418
     48 H13         3.7095   -4.8588    4.2831 H         1 <0>         0.1409
     49 H14         5.3916   -3.2937    5.1484 H         1 <0>         0.1423
     50 H15         5.1658   -0.8901    4.7868 H         1 <0>         0.1445
     51 H16         3.4588    2.6905    4.4722 H         1 <0>         0.1248
     52 H17         4.3829    2.5465    2.9386 H         1 <0>         0.1290
     53 H18         2.5201    4.8229    5.1509 H         1 <0>         0.1675
     54 H19         3.8702    8.3347    3.1427 H         1 <0>         0.1666
     55 H20         5.8324    4.2877   -0.5034 H         1 <0>         0.1555
     56 H21         4.2780    5.1876   -0.4756 H         1 <0>         0.0723
     57 H22         4.3390    7.5423    0.3479 H         1 <0>         0.0887
     58 H23         5.7096    7.9564    1.4327 H         1 <0>         0.1318
     59 H24         0.3405    1.7899   -2.3523 H         1 <0>         0.1385
     60 H25        -0.0726   -0.3687   -3.5833 H         1 <0>         0.1078
     61 H26        -1.0809   -0.9382   -2.2101 H         1 <0>         0.0844
     62 H27         0.6768   -0.6514   -1.9754 H         1 <0>         0.0796
     63 H28        -1.6201    1.5641   -3.9180 H         1 <0>         0.1066
     64 H29        -1.9833    2.6711   -2.5507 H         1 <0>         0.1016
     65 H30        -2.6283    0.9946   -2.5447 H         1 <0>         0.0859
     66 H31        -1.6451    0.6800   -0.4122 H         1 <0>         0.4399
@<TRIPOS>BOND
     1    1    2 1
     2    1   36 1
     3    1   37 1
     4    1   38 1
     5    2    3 1
     6    2    4 1
     7    2   39 1
     8    3   40 1
     9    3   41 1
    10    3   42 1
    11    4    5 1
    12    4   33 1
    13    4   66 1
    14    5    6 1
    15    5   43 1
    16    5   44 1
    17    6    7 1
    18    6   45 1
    19    6   46 1
    20    7   17 1
    21    7    8 am
    22    8    9 2
    23    8   10 1
    24   10   15 ar
    25   10   11 ar
    26   11   12 ar
    27   11   47 1
    28   12   13 ar
    29   12   48 1
    30   13   14 ar
    31   13   49 1
    32   14   15 ar
    33   14   50 1
    34   15   16 1
    35   16   17 2
    36   17   18 1
    37   18   19 1
    38   19   20 1
    39   19   51 1
    40   19   52 1
    41   20   25 ar
    42   20   21 ar
    43   21   22 ar
    44   21   53 1
    45   22   23 ar
    46   22   30 1
    47   23   24 ar
    48   23   54 1
    49   24   29 1
    50   24   25 ar
    51   25   26 1
    52   26   27 1
    53   27   28 1
    54   27   55 1
    55   27   56 1
    56   28   29 1
    57   29   57 1
    58   29   58 1
    59   30   31 2
    60   30   32 1
    61   33   34 1
    62   33   35 1
    63   33   59 1
    64   34   60 1
    65   34   61 1
    66   34   62 1
    67   35   63 1
    68   35   64 1
    69   35   65 1
@<TRIPOS>MOLECULE
ZINC36213670
   61    66     0     0     0
SMALL
USER_CHARGES

@<TRIPOS>ATOM
      1 C1          0.0994    1.5063   -0.2229 C.ar      1 <0>        -0.0774
      2 C2          1.1790    2.3542   -0.3833 C.ar      1 <0>        -0.1052
      3 C3          2.4349    1.8337   -0.6397 C.ar      1 <0>        -0.0061
      4 C4          2.6094    0.4646   -0.7353 C.ar      1 <0>        -0.1068
      5 C5          1.5290   -0.3824   -0.5747 C.ar      1 <0>        -0.0842
      6 C6          0.2743    0.1383   -0.3185 C.ar      1 <0>        -0.1606
      7 C7         -0.9032   -0.7857   -0.1431 C.3       1 <0>         0.0452
      8 N1         -1.5379   -1.0230   -1.4464 N.4       1 <0>        -0.3805
      9 C8         -0.5997   -1.7350   -2.3233 C.3       1 <0>        -0.0258
     10 C9         -1.2169   -1.8818   -3.7181 C.3       1 <0>         0.1209
     11 N2         -2.5306   -2.5296   -3.5808 N.pl3     1 <0>        -0.6750
     12 C10        -3.4773   -1.9763   -2.6001 C.3       1 <0>         0.1188
     13 C11        -2.7534   -1.8251   -1.2581 C.3       1 <0>        -0.0193
     14 C12        -2.8700   -3.6394   -4.3609 C.ar      1 <0>         0.2284
     15 C13        -2.5954   -4.9215   -3.9017 C.ar      1 <0>        -0.1079
     16 C14        -2.9306   -6.0167   -4.6720 C.ar      1 <0>        -0.0425
     17 C15        -3.5416   -5.8372   -5.9058 C.ar      1 <0>         0.1303
     18 C16        -3.8161   -4.5564   -6.3649 C.ar      1 <0>        -0.0313
     19 C17        -3.4868   -3.4605   -5.5923 C.ar      1 <0>        -0.0435
     20 N3         -3.7851   -2.0949   -6.0793 N.pl3     1 <0>         0.0384
     21 O1         -4.3220   -1.9392   -7.1512 O.2       1 <0>        -0.1535
     22 O2         -3.4918   -1.1351   -5.4050 O.3       1 <0>        -0.1414
     23 N4         -3.8814   -6.9513   -6.6892 N.am      1 <0>        -0.5351
     24 C18        -3.2811   -7.2278   -7.8523 C.2       1 <0>         0.5379
     25 O3         -2.3964   -6.5703   -8.3570 O.2       1 <0>        -0.4604
     26 C19        -3.8760   -8.4874   -8.4393 C.3       1 <0>        -0.1214
     27 H1         -3.1361   -9.2637   -8.6341 H         1 <0>         0.1470
     28 C20        -4.7060   -8.0946   -9.7016 C.3       1 <0>        -0.0579
     29 H2         -4.1590   -8.0501  -10.6434 H         1 <0>         0.1238
     30 C21        -5.8730   -9.1447   -9.6147 C.3       1 <0>        -0.1130
     31 C22        -6.3030   -8.6841   -8.1743 C.3       1 <0>        -0.0543
     32 H3         -7.1915   -9.1568   -7.7559 H         1 <0>         0.1244
     33 C23        -4.9480   -8.9001   -7.3876 C.3       1 <0>        -0.1209
     34 H4         -4.8145   -9.9117   -7.0042 H         1 <0>         0.1496
     35 C24        -4.8280   -7.8260   -6.3307 C.2       1 <0>         0.5405
     36 O4         -5.4889   -7.7654   -5.3162 O.2       1 <0>        -0.4622
     37 C25        -6.3805   -7.1687   -8.3959 C.2       1 <0>        -0.1737
     38 C26        -5.4429   -6.8165   -9.2834 C.2       1 <0>        -0.1759
     39 Cl1         3.7914    2.8981   -0.8419 Cl        1 <0>        -0.0371
     40 H5         -0.8803    1.9123   -0.0183 H         1 <0>         0.1423
     41 H6          1.0421    3.4229   -0.3089 H         1 <0>         0.1477
     42 H7          3.5895    0.0577   -0.9358 H         1 <0>         0.1470
     43 H8          1.6650   -1.4512   -0.6496 H         1 <0>         0.1402
     44 H9         -0.5623   -1.7337    0.2730 H         1 <0>         0.1367
     45 H10        -1.6248   -0.3299    0.5349 H         1 <0>         0.1404
     46 H11         0.3302   -1.1710   -2.3949 H         1 <0>         0.1394
     47 H12        -0.3949   -2.7229   -1.9107 H         1 <0>         0.1312
     48 H13        -1.3393   -0.8975   -4.1699 H         1 <0>         0.0936
     49 H14        -0.5688   -2.4967   -4.3425 H         1 <0>         0.1127
     50 H15        -3.8279   -1.0015   -2.9391 H         1 <0>         0.0943
     51 H16        -4.3235   -2.6537   -2.4855 H         1 <0>         0.1139
     52 H17        -2.4834   -2.8102   -0.8777 H         1 <0>         0.1317
     53 H18        -3.4104   -1.3274   -0.5448 H         1 <0>         0.1414
     54 H19        -2.1195   -5.0612   -2.9424 H         1 <0>         0.1564
     55 H20        -2.7172   -7.0135   -4.3151 H         1 <0>         0.1530
     56 H21        -4.2914   -4.4172   -7.3247 H         1 <0>         0.1607
     57 H22        -6.6497   -8.9682  -10.3588 H         1 <0>         0.0941
     58 H23        -5.5117  -10.1729   -9.6338 H         1 <0>         0.0916
     59 H24        -7.0723   -6.4943   -7.9133 H         1 <0>         0.1344
     60 H25        -5.2409   -5.8217   -9.6520 H         1 <0>         0.1397
     61 H26        -1.7818   -0.1385   -1.8664 H         1 <0>         0.4256
@<TRIPOS>BOND
     1    1    6 ar
     2    1    2 ar
     3    1   40 1
     4    2    3 ar
     5    2   41 1
     6    3    4 ar
     7    3   39 1
     8    4    5 ar
     9    4   42 1
    10    5    6 ar
    11    5   43 1
    12    6    7 1
    13    7    8 1
    14    7   44 1
    15    7   45 1
    16    8   13 1
    17    8    9 1
    18    8   61 1
    19    9   10 1
    20    9   46 1
    21    9   47 1
    22   10   11 1
    23   10   48 1
    24   10   49 1
    25   11   12 1
    26   11   14 1
    27   12   13 1
    28   12   50 1
    29   12   51 1
    30   13   52 1
    31   13   53 1
    32   14   19 ar
    33   14   15 ar
    34   15   16 ar
    35   15   54 1
    36   16   17 ar
    37   16   55 1
    38   17   18 ar
    39   17   23 1
    40   18   19 ar
    41   18   56 1
    42   19   20 1
    43   20   21 2
    44   20   22 1
    45   23   35 am
    46   23   24 am
    47   24   25 2
    48   24   26 1
    49   26   27 1
    50   26   33 1
    51   26   28 1
    52   28   29 1
    53   28   38 1
    54   28   30 1
    55   30   31 1
    56   30   57 1
    57   30   58 1
    58   31   32 1
    59   31   33 1
    60   31   37 1
    61   33   34 1
    62   33   35 1
    63   35   36 2
    64   37   38 2
    65   37   59 1
    66   38   60 1
@<TRIPOS>MOLECULE
ZINC63138616
   61    66     0     0     0
SMALL
USER_CHARGES

@<TRIPOS>ATOM
      1 C1         -0.9499    1.4446   -0.9900 C.3       1 <0>         0.0233
      2 O1         -0.9636    0.0162   -1.0279 O.3       1 <0>        -0.3123
      3 C2          0.1195   -0.5973   -1.5754 C.ar      1 <0>         0.1070
      4 C3          1.1749    0.1613   -2.0602 C.ar      1 <0>        -0.1453
      5 C4          2.2747   -0.4617   -2.6167 C.ar      1 <0>        -0.1563
      6 C5          2.3242   -1.8461   -2.6903 C.ar      1 <0>         0.1229
      7 C6          1.2694   -2.6044   -2.2052 C.ar      1 <0>        -0.1304
      8 C7          0.1715   -1.9814   -1.6439 C.ar      1 <0>        -0.1337
      9 C8          1.3231   -4.1083   -2.2853 C.3       1 <0>         0.1995
     10 H1          2.2613   -4.4205   -2.7441 H         1 <0>         0.1610
     11 C9          0.1431   -4.6267   -3.1121 C.3       1 <0>         0.0830
     12 H2          0.2659   -5.6877   -3.3295 H         1 <0>         0.1808
     13 C10        -1.1117   -4.3921   -2.2810 C.2       1 <0>         0.0559
     14 C11        -1.9330   -3.6725   -3.0362 C.ar      1 <0>        -0.1513
     15 C12        -3.3088   -3.2005   -2.8122 C.ar      1 <0>         0.0025
     16 C13        -3.8590   -2.4612   -3.8115 C.ar      1 <0>        -0.1564
     17 C14        -3.1859   -2.1476   -4.9964 C.ar      1 <0>         0.0559
     18 C15        -1.9217   -2.5445   -5.2888 C.ar      1 <0>        -0.2057
     19 C16        -1.2401   -3.3325   -4.3163 C.ar      1 <0>         0.3396
     20 N1         -0.0333   -3.8660   -4.3505 N.pl3     1 <0>        -0.5727
     21 C17        -1.2364   -4.8680   -0.8543 C.3       1 <0>        -0.0887
     22 C18         0.0308   -4.3929   -0.1200 C.3       1 <0>         0.1180
     23 H3         -0.0295   -3.3116    0.0036 H         1 <0>         0.1360
     24 N2          1.2114   -4.6873   -0.9277 N.am      1 <0>        -0.6005
     25 C19         2.2088   -5.4675   -0.4953 C.2       1 <0>         0.5228
     26 O2          3.1363   -5.6668   -1.2509 O.2       1 <0>        -0.5026
     27 C20         2.2612   -6.1096    0.8512 C.3       1 <0>         0.0973
     28 N3          1.0980   -5.7858    1.6602 N.am      1 <0>        -0.5942
     29 C21         0.0914   -5.0187    1.2342 C.2       1 <0>         0.5236
     30 O3         -0.8306   -4.8152    1.9954 O.2       1 <0>        -0.5053
     31 C22         1.0242   -6.3331    3.0171 C.3       1 <0>         0.1962
     32 C23         1.6670   -5.3708    3.9825 C.2       1 <0>        -0.1887
     33 C24         1.1021   -4.3521    4.6756 C.2       1 <0>        -0.1200
     34 C25         1.8947   -3.5916    5.5147 C.2       1 <0>        -0.1655
     35 C26         3.2134   -3.8871    5.6198 C.2       1 <0>        -0.1544
     36 S1          3.3683   -5.2818    4.5161 S.3       1 <0>         0.0389
     37 O4          3.4069   -2.4595   -3.2386 O.3       1 <0>        -0.3131
     38 C27         4.4563   -1.6165   -3.7186 C.3       1 <0>         0.0240
     39 H4         -0.0945    1.7845   -0.4061 H         1 <0>         0.0604
     40 H5         -0.8747    1.8343   -2.0052 H         1 <0>         0.0586
     41 H6         -1.8701    1.8047   -0.5299 H         1 <0>         0.1095
     42 H7          1.1363    1.2391   -2.0029 H         1 <0>         0.1425
     43 H8          3.0961    0.1289   -2.9948 H         1 <0>         0.1437
     44 H9         -0.6482   -2.5721   -1.2623 H         1 <0>         0.1396
     45 H10        -3.8504   -3.4287   -1.9061 H         1 <0>         0.1717
     46 H11        -4.8680   -2.0978   -3.6839 H         1 <0>         0.1557
     47 H12        -3.7078   -1.5493   -5.7286 H         1 <0>         0.1573
     48 H13        -1.4504   -2.2738   -6.2220 H         1 <0>         0.1677
     49 H14        -2.1217   -4.4319   -0.3914 H         1 <0>         0.1392
     50 H15        -1.2975   -5.9560   -0.8277 H         1 <0>         0.1347
     51 H16         2.3145   -7.1910    0.7255 H         1 <0>         0.1270
     52 H17         3.1581   -5.7710    1.3699 H         1 <0>         0.1218
     53 H18        -0.0198   -6.4814    3.2928 H         1 <0>         0.1210
     54 H19         1.5486   -7.2880    3.0527 H         1 <0>         0.1052
     55 H20         0.0486   -4.1375    4.5734 H         1 <0>         0.1376
     56 H21         1.4697   -2.7740    6.0780 H         1 <0>         0.1370
     57 H22         3.9725   -3.4062    6.2188 H         1 <0>         0.1887
     58 H23         4.0673   -0.9590   -4.4960 H         1 <0>         0.0598
     59 H24         4.8451   -1.0163   -2.8960 H         1 <0>         0.0617
     60 H25         5.2569   -2.2314   -4.1298 H         1 <0>         0.1103
     61 H26         0.6242   -3.7731   -5.0575 H         1 <0>         0.4583
@<TRIPOS>BOND
     1    1    2 1
     2    1   39 1
     3    1   40 1
     4    1   41 1
     5    2    3 1
     6    3    8 ar
     7    3    4 ar
     8    4    5 ar
     9    4   42 1
    10    5    6 ar
    11    5   43 1
    12    6    7 ar
    13    6   37 1
    14    7    8 ar
    15    7    9 1
    16    8   44 1
    17    9   10 1
    18    9   24 1
    19    9   11 1
    20   11   12 1
    21   11   20 1
    22   11   13 1
    23   13   14 2
    24   13   21 1
    25   14   19 ar
    26   14   15 ar
    27   15   16 ar
    28   15   45 1
    29   16   17 ar
    30   16   46 1
    31   17   18 ar
    32   17   47 1
    33   18   19 ar
    34   18   48 1
    35   19   20 2
    36   20   61 1
    37   21   22 1
    38   21   49 1
    39   21   50 1
    40   22   23 1
    41   22   29 1
    42   22   24 1
    43   24   25 am
    44   25   26 2
    45   25   27 1
    46   27   28 1
    47   27   51 1
    48   27   52 1
    49   28   29 am
    50   28   31 1
    51   29   30 2
    52   31   32 1
    53   31   53 1
    54   31   54 1
    55   32   36 1
    56   32   33 2
    57   33   34 1
    58   33   55 1
    59   34   35 2
    60   34   56 1
    61   35   36 1
    62   35   57 1
    63   37   38 1
    64   38   58 1
    65   38   59 1
    66   38   60 1
@<TRIPOS>MOLECULE
ZINC63372865
   70    75     0     0     0
SMALL
USER_CHARGES

@<TRIPOS>ATOM
      1 C1         -1.2234    1.5377    0.2645 C.3       1 <0>        -0.1529
      2 C2         -1.0960    0.0131    0.2466 C.3       1 <0>         0.0585
      3 O1         -2.3823   -0.5698    0.0285 O.3       1 <0>        -0.3231
      4 C3         -2.4454   -1.9276   -0.0153 C.ar      1 <0>         0.0875
      5 C4         -2.2845   -2.5916   -1.2208 C.ar      1 <0>        -0.0797
      6 C5         -2.3485   -3.9719   -1.2636 C.ar      1 <0>        -0.1846
      7 C6         -2.5732   -4.6928   -0.1055 C.ar      1 <0>        -0.0705
      8 C7         -2.7350   -4.0365    1.1004 C.ar      1 <0>        -0.1848
      9 C8         -2.6659   -2.6535    1.1512 C.ar      1 <0>         0.1279
     10 O2         -2.8188   -2.0066    2.3377 O.3       1 <0>        -0.3000
     11 C9         -3.0420   -2.8162    3.4939 C.3       1 <0>         0.0207
     12 C10        -2.0404   -1.8091   -2.4854 C.3       1 <0>        -0.0039
     13 H1         -2.1314   -0.7409   -2.2884 H         1 <0>         0.1454
     14 C11        -0.6492   -2.1257   -3.0406 C.3       1 <0>         0.1240
     15 N1         -0.5892   -3.3776   -3.7744 N.am      1 <0>        -0.6104
     16 C12         0.6605   -3.8881   -4.0356 C.2       1 <0>         0.5136
     17 O3          1.6604   -3.3969   -3.5561 O.2       1 <0>        -0.4700
     18 C13         0.7289   -5.0928   -4.9499 C.3       1 <0>         0.0690
     19 N2         -0.1799   -4.8691   -6.0899 N.am      1 <0>        -0.5909
     20 C14        -1.4318   -4.4081   -5.7904 C.2       1 <0>         0.5245
     21 O4         -2.2760   -4.2234   -6.6413 O.2       1 <0>        -0.5182
     22 C15        -1.6894   -4.1460   -4.3290 C.3       1 <0>         0.1571
     23 C16        -3.0767   -3.6703   -4.0305 C.3       1 <0>         0.0997
     24 H2         -3.5081   -4.2913   -3.2454 H         1 <0>         0.1909
     25 C17        -3.0225   -2.2257   -3.5513 C.2       1 <0>         0.0437
     26 C18        -3.9265   -1.5589   -4.2526 C.ar      1 <0>        -0.1356
     27 C19        -4.4032   -0.1686   -4.1753 C.ar      1 <0>        -0.0052
     28 C20        -5.3457    0.1942   -5.0850 C.ar      1 <0>        -0.1530
     29 C21        -5.8564   -0.6762   -6.0529 C.ar      1 <0>         0.0528
     30 C22        -5.4825   -1.9732   -6.1912 C.ar      1 <0>        -0.2018
     31 C23        -4.5032   -2.4743   -5.2855 C.ar      1 <0>         0.3428
     32 N3         -3.9783   -3.6542   -5.1815 N.pl3     1 <0>        -0.5379
     33 C24        -1.5985   -5.5183   -3.6584 C.3       1 <0>        -0.2215
     34 C25         0.2370   -5.1268   -7.4705 C.3       1 <0>         0.1405
     35 C26         0.6958   -6.5921   -7.6191 C.3       1 <0>        -0.1353
     36 C27         1.8885   -6.5186   -8.6047 C.3       1 <0>        -0.1251
     37 C28         2.6017   -5.2105   -8.1812 C.3       1 <0>        -0.1267
     38 C29         1.4488   -4.2483   -7.8279 C.3       1 <0>        -0.1389
     39 H3         -0.2422    1.9824    0.4308 H         1 <0>         0.0805
     40 H4         -1.6203    1.8804   -0.6911 H         1 <0>         0.0636
     41 H5         -1.8984    1.8365    1.0664 H         1 <0>         0.0700
     42 H6         -0.4209   -0.2857   -0.5554 H         1 <0>         0.0520
     43 H7         -0.6991   -0.3295    1.2022 H         1 <0>         0.0604
     44 H8         -2.2229   -4.4882   -2.2038 H         1 <0>         0.1390
     45 H9         -2.6229   -5.7710   -0.1430 H         1 <0>         0.1365
     46 H10        -2.9109   -4.6019    2.0036 H         1 <0>         0.1422
     47 H11        -3.9529   -3.3994    3.3587 H         1 <0>         0.0609
     48 H12        -2.1967   -3.4898    3.6344 H         1 <0>         0.0607
     49 H13        -3.1467   -2.1768    4.3704 H         1 <0>         0.1095
     50 H14        -0.3463   -1.3167   -3.7052 H         1 <0>         0.0862
     51 H15         0.0553   -2.1738   -2.2102 H         1 <0>         0.1139
     52 H16         1.7486   -5.2186   -5.3139 H         1 <0>         0.1370
     53 H17         0.4194   -5.9843   -4.4045 H         1 <0>         0.1248
     54 H18        -4.0259    0.5239   -3.4375 H         1 <0>         0.1714
     55 H19        -5.7197    1.2071   -5.0587 H         1 <0>         0.1568
     56 H20        -6.5980   -0.2901   -6.7366 H         1 <0>         0.1594
     57 H21        -5.9111   -2.6017   -6.9578 H         1 <0>         0.1706
     58 H22        -1.0668   -5.4254   -2.7114 H         1 <0>         0.1121
     59 H23        -2.6027   -5.9005   -3.4754 H         1 <0>         0.0921
     60 H24        -1.0611   -6.2065   -4.3108 H         1 <0>         0.1012
     61 H25        -0.5872   -4.9217   -8.1536 H         1 <0>         0.1098
     62 H26         1.0197   -6.9899   -6.6574 H         1 <0>         0.0750
     63 H27        -0.1057   -7.2025   -8.0351 H         1 <0>         0.0775
     64 H28         2.5482   -7.3769   -8.4775 H         1 <0>         0.0777
     65 H29         1.5356   -6.4504   -9.6337 H         1 <0>         0.0747
     66 H30         3.2333   -5.3851   -7.3102 H         1 <0>         0.0701
     67 H31         3.1910   -4.8126   -9.0074 H         1 <0>         0.0757
     68 H32         1.2129   -3.6176   -8.6849 H         1 <0>         0.0790
     69 H33         1.7266   -3.6303   -6.9741 H         1 <0>         0.0706
     70 H34        -4.1622   -4.4028   -5.7703 H         1 <0>         0.4605
@<TRIPOS>BOND
     1    1    2 1
     2    1   39 1
     3    1   40 1
     4    1   41 1
     5    2    3 1
     6    2   42 1
     7    2   43 1
     8    3    4 1
     9    4    9 ar
    10    4    5 ar
    11    5    6 ar
    12    5   12 1
    13    6    7 ar
    14    6   44 1
    15    7    8 ar
    16    7   45 1
    17    8    9 ar
    18    8   46 1
    19    9   10 1
    20   10   11 1
    21   11   47 1
    22   11   48 1
    23   11   49 1
    24   12   13 1
    25   12   25 1
    26   12   14 1
    27   14   15 1
    28   14   50 1
    29   14   51 1
    30   15   22 1
    31   15   16 am
    32   16   17 2
    33   16   18 1
    34   18   19 1
    35   18   52 1
    36   18   53 1
    37   19   20 am
    38   19   34 1
    39   20   21 2
    40   20   22 1
    41   22   23 1
    42   22   33 1
    43   23   24 1
    44   23   32 1
    45   23   25 1
    46   25   26 2
    47   26   31 ar
    48   26   27 ar
    49   27   28 ar
    50   27   54 1
    51   28   29 ar
    52   28   55 1
    53   29   30 ar
    54   29   56 1
    55   30   31 ar
    56   30   57 1
    57   31   32 2
    58   32   70 1
    59   33   58 1
    60   33   59 1
    61   33   60 1
    62   34   38 1
    63   34   35 1
    64   34   61 1
    65   35   36 1
    66   35   62 1
    67   35   63 1
    68   36   37 1
    69   36   64 1
    70   36   65 1
    71   37   38 1
    72   37   66 1
    73   37   67 1
    74   38   68 1
    75   38   69 1
@<TRIPOS>MOLECULE
ZINC08977654
   51    53     0     0     0
SMALL
USER_CHARGES
ethyl [2-[1-(4-chlorophenyl)sulfonylpyrrolidin-2-yl]carbonylamino-3-thienyl]carbonylaminoformate
@<TRIPOS>ATOM
      1 C1         -5.9390    1.9349   -2.4005 C.3       1 <0>        -0.1542
      2 C2         -4.8992    0.8326   -2.1895 C.3       1 <0>         0.0799
      3 O1         -3.6731    1.4159   -1.6750 O.3       1 <0>        -0.3656
      4 C3         -2.6506    0.5745   -1.4333 C.2       1 <0>         0.6436
      5 O2         -2.7790   -0.6145   -1.6462 O.2       1 <0>        -0.5073
      6 N1         -1.4843    1.0513   -0.9550 N.am      1 <0>        -0.6554
      7 C4         -0.4604    0.2089   -0.7129 C.2       1 <0>         0.5986
      8 O3         -0.5891   -0.9821   -0.9262 O.2       1 <0>        -0.4882
      9 C5          0.8073    0.7271   -0.1930 C.2       1 <0>        -0.2686
     10 C6          0.9992    2.1333    0.0724 C.2       1 <0>        -0.1070
     11 C7          2.1993    2.5105    0.5481 C.2       1 <0>        -0.2337
     12 S1          3.1004    0.9779    0.6500 S.3       1 <0>         0.2478
     13 C8          1.8858   -0.1110    0.0690 C.2       1 <0>         0.1320
     14 N2          1.9683   -1.4850   -0.0948 N.am      1 <0>        -0.6057
     15 C9          3.1084   -2.1334    0.2155 C.2       1 <0>         0.4975
     16 O4          4.0621   -1.5147    0.6380 O.2       1 <0>        -0.4811
     17 C10         3.1981   -3.6271    0.0374 C.3       1 <0>         0.1437
     18 H1          2.5861   -3.9367   -0.8097 H         1 <0>         0.1084
     19 C11         2.7174   -4.3384    1.3199 C.3       1 <0>        -0.1183
     20 C12         3.6991   -5.5372    1.4381 C.3       1 <0>        -0.1268
     21 C13         5.0157   -4.9176    0.9069 C.3       1 <0>         0.1170
     22 N3          4.5969   -4.0210   -0.1858 N.pl3     1 <0>        -0.9915
     23 S2          5.5446   -3.5382   -1.4551 S.o2      1 <0>         2.7044
     24 O5          4.9220   -2.3890   -2.0128 O.2       1 <0>        -0.9401
     25 O6          6.8837   -3.5241   -0.9797 O.2       1 <0>        -0.9362
     26 C14         5.4584   -4.8020   -2.6799 C.ar      1 <0>        -0.6813
     27 C15         6.3159   -5.8844   -2.6174 C.ar      1 <0>        -0.0066
     28 C16         6.2449   -6.8789   -3.5747 C.ar      1 <0>        -0.1299
     29 C17         5.3230   -6.7852   -4.6020 C.ar      1 <0>         0.0192
     30 C18         4.4688   -5.6988   -4.6672 C.ar      1 <0>        -0.1297
     31 C19         4.5370   -4.7078   -3.7062 C.ar      1 <0>        -0.0066
     32 Cl1         5.2376   -8.0306   -5.8084 Cl        1 <0>        -0.0495
     33 H2         -5.5560    2.6638   -3.1146 H         1 <0>         0.0686
     34 H3         -6.8595    1.4970   -2.7867 H         1 <0>         0.0858
     35 H4         -6.1425    2.4292   -1.4505 H         1 <0>         0.0686
     36 H5         -4.6958    0.3383   -3.1394 H         1 <0>         0.0748
     37 H6         -5.2823    0.1036   -1.4753 H         1 <0>         0.0748
     38 H7         -1.3817    2.0008   -0.7849 H         1 <0>         0.4202
     39 H8          0.2138    2.8524   -0.1078 H         1 <0>         0.1427
     40 H9          2.5356    3.5038    0.8063 H         1 <0>         0.1932
     41 H10         1.2055   -1.9798   -0.4327 H         1 <0>         0.4346
     42 H11         2.8083   -3.6795    2.1834 H         1 <0>         0.0879
     43 H12         1.6910   -4.6871    1.2058 H         1 <0>         0.0998
     44 H13         3.3765   -6.3673    0.8096 H         1 <0>         0.0841
     45 H14         3.8072   -5.8544    2.4754 H         1 <0>         0.0946
     46 H15         5.6754   -5.6973    0.5261 H         1 <0>         0.0835
     47 H16         5.5143   -4.3504    1.6930 H         1 <0>         0.0836
     48 H17         7.0385   -5.9553   -1.8179 H         1 <0>         0.1497
     49 H18         6.9120   -7.7267   -3.5232 H         1 <0>         0.1472
     50 H19         3.7487   -5.6253   -5.4687 H         1 <0>         0.1469
     51 H20         3.8700   -3.8599   -3.7568 H         1 <0>         0.1507
@<TRIPOS>BOND
     1    1    2 1
     2    1   33 1
     3    1   34 1
     4    1   35 1
     5    2    3 1
     6    2   36 1
     7    2   37 1
     8    3    4 1
     9    4    5 2
    10    4    6 am
    11    6    7 am
    12    6   38 1
    13    7    8 2
    14    7    9 1
    15    9   13 2
    16    9   10 1
    17   10   11 2
    18   10   39 1
    19   11   12 1
    20   11   40 1
    21   12   13 1
    22   13   14 1
    23   14   15 am
    24   14   41 1
    25   15   16 2
    26   15   17 1
    27   17   18 1
    28   17   22 1
    29   17   19 1
    30   19   20 1
    31   19   42 1
    32   19   43 1
    33   20   21 1
    34   20   44 1
    35   20   45 1
    36   21   22 1
    37   21   46 1
    38   21   47 1
    39   22   23 1
    40   23   24 2
    41   23   25 2
    42   23   26 1
    43   26   31 ar
    44   26   27 ar
    45   27   28 ar
    46   27   48 1
    47   28   29 ar
    48   28   49 1
    49   29   30 ar
    50   29   32 1
    51   30   31 ar
    52   30   50 1
    53   31   51 1
@<TRIPOS>MOLECULE
ZINC09634237
   52    55     0     0     0
SMALL
USER_CHARGES
1-(4-chlorophenyl)sulfonyl-4-hydroxy-N-[(1-phenylpyrazol-4-yl)methyleneamino]pyrrolidine-2-carboxamide
@<TRIPOS>ATOM
      1 C1         -0.0167    1.3786    0.0096 C.ar      1 <0>        -0.1252
      2 C2          1.1696    2.0891    0.0021 C.ar      1 <0>        -0.0932
      3 C3          2.3774    1.4192   -0.0131 C.ar      1 <0>        -0.1393
      4 C4          2.3995    0.0309   -0.0212 C.ar      1 <0>         0.1527
      5 C5          1.2066   -0.6797   -0.0136 C.ar      1 <0>        -0.1148
      6 C6          0.0021   -0.0041    0.0020 C.ar      1 <0>        -0.0951
      7 N1          3.6233   -0.6518   -0.0366 N.pl3     1 <0>        -0.3118
      8 C7          4.8467   -0.0807   -0.0453 C.2       1 <0>         0.0909
      9 C8          5.7758   -1.0990   -0.0592 C.2       1 <0>        -0.1966
     10 C9          5.0622   -2.3177   -0.0586 C.2       1 <0>         0.1016
     11 N2          3.7859   -2.0418   -0.0395 N.2       1 <0>        -0.2904
     12 C10         7.2430   -0.9444   -0.0718 C.2       1 <0>         0.1523
     13 N3          8.0058   -1.9938   -0.0843 N.2       1 <0>        -0.2331
     14 N4          9.3990   -1.8470   -0.0963 N.am      1 <0>        -0.5822
     15 C11        10.1914   -2.9372   -0.1093 C.2       1 <0>         0.5103
     16 O1          9.6982   -4.0456   -0.1106 O.2       1 <0>        -0.4637
     17 C12        11.6900   -2.7793   -0.1222 C.3       1 <0>         0.1419
     18 H1         11.9952   -2.2105   -1.0005 H         1 <0>         0.1136
     19 C13        12.1528   -2.0577    1.1611 C.3       1 <0>        -0.1140
     20 C14        12.5829   -3.2295    2.0827 C.3       1 <0>         0.0967
     21 H2         11.7214   -3.6647    2.5892 H         1 <0>         0.0818
     22 C15        13.1867   -4.2241    1.0601 C.3       1 <0>         0.0809
     23 N5         12.3321   -4.1018   -0.1350 N.pl3     1 <0>        -0.9874
     24 S1         12.1296   -5.2617   -1.2995 S.o2      1 <0>         2.7065
     25 O2         12.4338   -6.5081   -0.6885 O.2       1 <0>        -0.9426
     26 O3         10.8769   -5.0020   -1.9179 O.2       1 <0>        -0.9169
     27 C16        13.3636   -4.9883   -2.5272 C.ar      1 <0>        -0.6832
     28 C17        13.0970   -4.1615   -3.6026 C.ar      1 <0>        -0.0076
     29 C18        14.0665   -3.9422   -4.5630 C.ar      1 <0>        -0.1308
     30 C19        15.3000   -4.5592   -4.4539 C.ar      1 <0>         0.0179
     31 C20        15.5642   -5.3910   -3.3804 C.ar      1 <0>        -0.1305
     32 C21        14.5959   -5.6051   -2.4176 C.ar      1 <0>        -0.0066
     33 Cl1        16.5159   -4.2893   -5.6632 Cl        1 <0>        -0.0509
     34 O4         13.5680   -2.8040    3.0264 O.3       1 <0>        -0.5528
     35 H3         -0.9598    1.9047    0.0170 H         1 <0>         0.1305
     36 H4          1.1518    3.1689    0.0078 H         1 <0>         0.1346
     37 H5          3.3036    1.9746   -0.0194 H         1 <0>         0.1312
     38 H6          1.2206   -1.7596   -0.0203 H         1 <0>         0.1398
     39 H7         -0.9261   -0.5562    0.0080 H         1 <0>         0.1341
     40 H8          5.0583    0.9783   -0.0417 H         1 <0>         0.1876
     41 H9          5.4967   -3.3064   -0.0673 H         1 <0>         0.1995
     42 H10         7.6820    0.0423   -0.0706 H         1 <0>         0.1209
     43 H11         9.7933   -0.9608   -0.0952 H         1 <0>         0.3844
     44 H12        12.9978   -1.4019    0.9514 H         1 <0>         0.1057
     45 H13        11.3304   -1.4983    1.6069 H         1 <0>         0.0935
     46 H14        13.1483   -5.2407    1.4514 H         1 <0>         0.0948
     47 H15        14.2136   -3.9468    0.8221 H         1 <0>         0.0852
     48 H16        12.1325   -3.6834   -3.6900 H         1 <0>         0.1493
     49 H17        13.8596   -3.2928   -5.4008 H         1 <0>         0.1460
     50 H18        16.5270   -5.8726   -3.2945 H         1 <0>         0.1464
     51 H19        14.8019   -6.2546   -1.5798 H         1 <0>         0.1502
     52 H20        13.9382   -3.5212    3.5590 H         1 <0>         0.3879
@<TRIPOS>BOND
     1    1    6 ar
     2    1    2 ar
     3    1   35 1
     4    2    3 ar
     5    2   36 1
     6    3    4 ar
     7    3   37 1
     8    4    5 ar
     9    4    7 1
    10    5    6 ar
    11    5   38 1
    12    6   39 1
    13    7   11 1
    14    7    8 1
    15    8    9 2
    16    8   40 1
    17    9   10 1
    18    9   12 1
    19   10   11 2
    20   10   41 1
    21   12   13 2
    22   12   42 1
    23   13   14 1
    24   14   15 am
    25   14   43 1
    26   15   16 2
    27   15   17 1
    28   17   18 1
    29   17   23 1
    30   17   19 1
    31   19   20 1
    32   19   44 1
    33   19   45 1
    34   20   21 1
    35   20   22 1
    36   20   34 1
    37   22   23 1
    38   22   46 1
    39   22   47 1
    40   23   24 1
    41   24   25 2
    42   24   26 2
    43   24   27 1
    44   27   32 ar
    45   27   28 ar
    46   28   29 ar
    47   28   48 1
    48   29   30 ar
    49   29   49 1
    50   30   31 ar
    51   30   33 1
    52   31   32 ar
    53   31   50 1
    54   32   51 1
    55   34   52 1
@<TRIPOS>MOLECULE
ZINC14556830
   56    59     0     0     0
SMALL
USER_CHARGES
2-(1,3-dioxo-2,4-diazaspiro[4.5]decan-2-yl)-N-[2-[(5Z)-5-[(2-fluorophenyl)methylene]-2,4-dioxo-thiazolidin-3-yl]ethyl]acetamide
@<TRIPOS>ATOM
      1 C1          5.3876   -2.0058    0.3198 C.ar      1 <0>        -0.1263
      2 C2          5.7108   -3.1503   -0.3899 C.ar      1 <0>        -0.0622
      3 C3          4.7184   -3.9108   -0.9811 C.ar      1 <0>        -0.1560
      4 C4          3.3941   -3.5328   -0.8680 C.ar      1 <0>         0.1385
      5 C5          3.0598   -2.3758   -0.1512 C.ar      1 <0>        -0.1300
      6 C6          4.0727   -1.6108    0.4385 C.ar      1 <0>        -0.0643
      7 C7          1.6549   -1.9650   -0.0247 C.2       1 <0>         0.0777
      8 C8          1.3499   -0.6906    0.3260 C.2       1 <0>        -0.2110
      9 C9          0.0397   -0.0921    0.6543 C.2       1 <0>         0.5589
     10 O1         -0.9848   -0.7486    0.6400 O.2       1 <0>        -0.4606
     11 N1          0.0370    1.1934    0.9648 N.am      1 <0>        -0.5746
     12 C10         1.1748    1.9171    0.9798 C.2       1 <0>         0.5367
     13 O2          1.3167    3.0958    1.2444 O.2       1 <0>        -0.4092
     14 S1          2.4226    0.7266    0.5174 S.3       1 <0>        -0.0353
     15 C11        -1.2318    1.8475    1.2942 C.3       1 <0>         0.0817
     16 C12        -1.4855    1.7397    2.7992 C.3       1 <0>         0.1088
     17 N2         -2.7543    2.3938    3.1287 N.am      1 <0>        -0.7221
     18 C13        -3.1858    2.4232    4.4051 C.2       1 <0>         0.5052
     19 O3         -2.5237    1.9082    5.2811 O.2       1 <0>        -0.5212
     20 C14        -4.4909    3.0961    4.7440 C.3       1 <0>         0.1006
     21 N3         -4.7338    2.9929    6.1850 N.am      1 <0>        -0.5635
     22 C15        -5.4027    1.9780    6.7705 C.2       1 <0>         0.5371
     23 O4         -5.8988    1.0151    6.2258 O.2       1 <0>        -0.4576
     24 C16        -5.4012    2.2931    8.2485 C.3       1 <0>         0.1294
     25 C17        -6.8302    2.4550    8.7551 C.3       1 <0>        -0.1147
     26 C18        -6.8079    2.8108   10.2440 C.3       1 <0>        -0.1172
     27 C19        -6.0954    1.7023   11.0214 C.3       1 <0>        -0.1255
     28 C20        -4.6573    1.5659   10.5171 C.3       1 <0>        -0.1170
     29 C21        -4.6718    1.2053    9.0293 C.3       1 <0>        -0.1148
     30 N4         -4.6757    3.5665    8.3411 N.am      1 <0>        -0.7127
     31 C22        -4.3246    3.8969    7.0836 C.2       1 <0>         0.7088
     32 O5         -3.7053    4.9026    6.7968 O.2       1 <0>        -0.5386
     33 F1          2.4252   -4.2756   -1.4465 F         1 <0>        -0.1264
     34 H1          6.1693   -1.4182    0.7781 H         1 <0>         0.1407
     35 H2          6.7441   -3.4506   -0.4825 H         1 <0>         0.1420
     36 H3          4.9792   -4.8019   -1.5328 H         1 <0>         0.1456
     37 H4          3.8241   -0.7154    0.9889 H         1 <0>         0.1456
     38 H5          0.8650   -2.6776   -0.2110 H         1 <0>         0.1670
     39 H6         -1.1839    2.8982    1.0082 H         1 <0>         0.1087
     40 H7         -2.0430    1.3602    0.7533 H         1 <0>         0.1119
     41 H8         -1.5334    0.6890    3.0853 H         1 <0>         0.0785
     42 H9         -0.6743    2.2269    3.3402 H         1 <0>         0.0768
     43 H10        -3.2838    2.8057    2.4281 H         1 <0>         0.4061
     44 H11        -4.4430    4.1468    4.4579 H         1 <0>         0.1316
     45 H12        -5.3021    2.6089    4.2030 H         1 <0>         0.1293
     46 H13        -7.3248    3.2512    8.1988 H         1 <0>         0.0752
     47 H14        -7.3739    1.5210    8.6131 H         1 <0>         0.0912
     48 H15        -7.8301    2.9115   10.6090 H         1 <0>         0.0755
     49 H16        -6.2773    3.7525   10.3849 H         1 <0>         0.0650
     50 H17        -6.6226    0.7596   10.8747 H         1 <0>         0.0689
     51 H18        -6.0860    1.9518   12.0824 H         1 <0>         0.0696
     52 H19        -4.1489    0.7806   11.0765 H         1 <0>         0.0755
     53 H20        -4.1318    2.5105   10.6571 H         1 <0>         0.0647
     54 H21        -5.1845    0.2534    8.8913 H         1 <0>         0.0899
     55 H22        -3.6476    1.1222    8.6659 H         1 <0>         0.0780
     56 H23        -4.4871    4.0704    9.1483 H         1 <0>         0.4405
@<TRIPOS>BOND
     1    1    6 ar
     2    1    2 ar
     3    1   34 1
     4    2    3 ar
     5    2   35 1
     6    3    4 ar
     7    3   36 1
     8    4    5 ar
     9    4   33 1
    10    5    6 ar
    11    5    7 1
    12    6   37 1
    13    7    8 2
    14    7   38 1
    15    8   14 1
    16    8    9 1
    17    9   10 2
    18    9   11 am
    19   11   12 am
    20   11   15 1
    21   12   13 2
    22   12   14 1
    23   15   16 1
    24   15   39 1
    25   15   40 1
    26   16   17 1
    27   16   41 1
    28   16   42 1
    29   17   18 am
    30   17   43 1
    31   18   19 2
    32   18   20 1
    33   20   21 1
    34   20   44 1
    35   20   45 1
    36   21   31 am
    37   21   22 am
    38   22   23 2
    39   22   24 1
    40   24   29 1
    41   24   25 1
    42   24   30 1
    43   25   26 1
    44   25   46 1
    45   25   47 1
    46   26   27 1
    47   26   48 1
    48   26   49 1
    49   27   28 1
    50   27   50 1
    51   27   51 1
    52   28   29 1
    53   28   52 1
    54   28   53 1
    55   29   54 1
    56   29   55 1
    57   30   31 am
    58   30   56 1
    59   31   32 2
@<TRIPOS>MOLECULE
ZINC16097449
   53    56     0     0     0
SMALL
USER_CHARGES

@<TRIPOS>ATOM
      1 C1         -0.0187    1.5258    0.0104 C.3       1 <0>        -0.1523
      2 C2          0.0021   -0.0041    0.0020 C.3       1 <0>         0.0558
      3 O1          0.6709   -0.4649   -1.1737 O.3       1 <0>        -0.3452
      4 C3          0.7760   -1.8000   -1.3349 C.2       1 <0>         0.5308
      5 O2          0.3117   -2.5519   -0.4991 O.2       1 <0>        -0.4929
      6 C4          1.4489   -2.3441   -2.5162 C.2       1 <0>        -0.1991
      7 C5          2.8849   -2.6209   -2.5147 C.2       1 <0>        -0.0875
      8 C6          3.3492   -3.1160   -3.6756 C.2       1 <0>        -0.2461
      9 S1          1.9218   -3.2101   -4.7260 S.3       1 <0>         0.3418
     10 C7          0.7514   -2.6230   -3.6781 C.2       1 <0>         0.0399
     11 N1         -0.6027   -2.4539   -3.9209 N.am      1 <0>        -0.6158
     12 C8         -1.1179   -2.7812   -5.1225 C.2       1 <0>         0.5135
     13 O3         -0.3967   -3.2237   -5.9914 O.2       1 <0>        -0.4699
     14 C9         -2.5902   -2.5973   -5.3866 C.3       1 <0>         0.0586
     15 O4         -2.8903   -3.0119   -6.7208 O.3       1 <0>        -0.3232
     16 C10        -4.1751   -2.9107   -7.1192 C.2       1 <0>         0.5664
     17 O5         -5.0173   -2.4819   -6.3535 O.2       1 <0>        -0.4832
     18 C11        -4.5560   -3.3172   -8.4735 C.2       1 <0>        -0.2591
     19 C12        -5.7894   -3.2853   -9.0575 C.2       1 <0>         0.0559
     20 C13        -5.9461   -3.7219  -10.3743 C.2       1 <0>        -0.2769
     21 C14        -7.1727   -3.7781  -11.2019 C.2       1 <0>         0.5642
     22 O6         -8.2452   -3.4115  -10.7554 O.2       1 <0>        -0.5007
     23 N2         -7.0718   -4.2449  -12.4618 N.am      1 <0>        -0.6373
     24 H1         -7.8659   -4.2884  -13.0173 H         1 <0>         0.4258
     25 C15        -5.8834   -4.6548  -12.9695 C.2       1 <0>         0.4355
     26 N3         -4.7836   -4.6185  -12.2673 N.2       1 <0>        -0.4984
     27 C16        -4.7713   -4.1772  -11.0161 C.2       1 <0>         0.1285
     28 S2         -3.5212   -3.9701   -9.7731 S.3       1 <0>         0.2445
     29 C17        -5.8307   -5.1678  -14.3855 C.3       1 <0>        -0.1148
     30 C18        -6.9792   -2.7804   -8.2825 C.3       1 <0>        -0.1278
     31 C19         4.8300   -3.3783   -3.6211 C.3       1 <0>        -0.0310
     32 C20         5.3236   -2.5767   -2.3962 C.3       1 <0>        -0.1154
     33 C21         4.0483   -2.5052   -1.5321 C.3       1 <0>        -0.0615
     34 H2          1.0039    1.9031    0.0027 H         1 <0>         0.0678
     35 H3         -0.5459    1.8868   -0.8726 H         1 <0>         0.0667
     36 H4         -0.5289    1.8773    0.9072 H         1 <0>         0.0814
     37 H5          0.5293   -0.3651    0.8851 H         1 <0>         0.0694
     38 H6         -1.0205   -0.3814    0.0098 H         1 <0>         0.0680
     39 H7         -1.1796   -2.1000   -3.2260 H         1 <0>         0.4217
     40 H8         -3.1637   -3.1990   -4.6815 H         1 <0>         0.1142
     41 H9         -2.8527   -1.5464   -5.2649 H         1 <0>         0.1143
     42 H10        -5.6339   -4.3387  -15.0652 H         1 <0>         0.1098
     43 H11        -5.0350   -5.9074  -14.4746 H         1 <0>         0.1130
     44 H12        -6.7851   -5.6283  -14.6409 H         1 <0>         0.0962
     45 H13        -7.0818   -1.7058   -8.4336 H         1 <0>         0.0842
     46 H14        -7.8806   -3.2841   -8.6317 H         1 <0>         0.0874
     47 H15        -6.8357   -2.9861   -7.2217 H         1 <0>         0.0922
     48 H16         5.0226   -4.4421   -3.4819 H         1 <0>         0.0867
     49 H17         5.3132   -3.0194   -4.5299 H         1 <0>         0.0818
     50 H18         6.1183   -3.1106   -1.8752 H         1 <0>         0.0857
     51 H19         5.6525   -1.5797   -2.6893 H         1 <0>         0.0787
     52 H20         4.0031   -1.5527   -1.0042 H         1 <0>         0.0741
     53 H21         4.0264   -3.3323   -0.8224 H         1 <0>         0.0834
@<TRIPOS>BOND
     1    1    2 1
     2    1   34 1
     3    1   35 1
     4    1   36 1
     5    2    3 1
     6    2   37 1
     7    2   38 1
     8    3    4 1
     9    4    5 2
    10    4    6 1
    11    6   10 2
    12    6    7 1
    13    7   33 1
    14    7    8 2
    15    8    9 1
    16    8   31 1
    17    9   10 1
    18   10   11 1
    19   11   12 am
    20   11   39 1
    21   12   13 2
    22   12   14 1
    23   14   15 1
    24   14   40 1
    25   14   41 1
    26   15   16 1
    27   16   17 2
    28   16   18 1
    29   18   28 1
    30   18   19 2
    31   19   20 1
    32   19   30 1
    33   20   27 2
    34   20   21 1
    35   21   22 2
    36   21   23 am
    37   23   24 1
    38   23   25 1
    39   25   26 2
    40   25   29 1
    41   26   27 1
    42   27   28 1
    43   29   42 1
    44   29   43 1
    45   29   44 1
    46   30   45 1
    47   30   46 1
    48   30   47 1
    49   31   32 1
    50   31   48 1
    51   31   49 1
    52   32   33 1
    53   32   50 1
    54   32   51 1
    55   33   52 1
    56   33   53 1
@<TRIPOS>MOLECULE
ZINC02755666
   59    62     0     0     0
SMALL
USER_CHARGES

@<TRIPOS>ATOM
      1 C1         -0.0184    1.5028    0.0103 C.3       1 <0>        -0.0764
      2 C2          0.0021   -0.0041    0.0020 C.2       1 <0>         0.0920
      3 C3          0.0080   -0.8179   -1.1355 C.2       1 <0>        -0.2642
      4 C4          0.0279   -2.1072   -0.7249 C.2       1 <0>         0.0826
      5 N1          0.0343   -2.1090    0.6245 N.pl3     1 <0>        -0.3734
      6 N2          0.0231   -0.7768    1.0576 N.2       1 <0>        -0.2950
      7 C5          0.0548   -3.2948    1.4847 C.3       1 <0>         0.0999
      8 C6         -0.0061   -0.3430   -2.5656 C.3       1 <0>         0.2026
      9 N3          1.3465    0.0581   -2.9603 N.am      1 <0>        -0.7105
     10 C7          1.5761    0.5198   -4.2056 C.2       1 <0>         0.6004
     11 O1          0.6607    0.6034   -5.0012 O.2       1 <0>        -0.5234
     12 C8          2.9400    0.9243   -4.6036 C.2       1 <0>         0.0679
     13 C9          3.3197    1.4284   -5.8682 C.2       1 <0>        -0.2662
     14 C10         4.6434    1.6770   -5.8265 C.2       1 <0>         0.3655
     15 N4          5.1001    1.3435   -4.5829 N.pl3     1 <0>        -0.3960
     16 N5          4.0158    0.8828   -3.8372 N.2       1 <0>        -0.2521
     17 C11         6.4997    1.4750   -4.1684 C.3       1 <0>         0.1283
     18 H1          6.6215    2.3819   -3.5761 H         1 <0>         0.1349
     19 C12         7.3820    1.5565   -5.4193 C.3       1 <0>        -0.1487
     20 C13         6.8261    2.6113   -6.3823 C.3       1 <0>         0.2035
     21 H2          7.4836    2.7001   -7.2472 H         1 <0>         0.1193
     22 N6          5.4832    2.1842   -6.8222 N.pl3     1 <0>        -0.7228
     23 C14         6.7335    3.9406   -5.6784 C.ar      1 <0>        -0.1176
     24 C15         5.6727    4.1996   -4.8306 C.ar      1 <0>        -0.1097
     25 C16         5.5832    5.4175   -4.1825 C.ar      1 <0>        -0.1684
     26 C17         6.5584    6.3815   -4.3817 C.ar      1 <0>         0.1097
     27 C18         7.6264    6.1206   -5.2347 C.ar      1 <0>         0.1027
     28 C19         7.7126    4.8961   -5.8774 C.ar      1 <0>        -0.1568
     29 O2          8.5859    7.0636   -5.4334 O.3       1 <0>        -0.3041
     30 C20         9.6527    6.7263   -6.3224 C.3       1 <0>         0.0248
     31 O3          6.4716    7.5802   -3.7453 O.3       1 <0>        -0.3044
     32 C21         5.3478    7.7783   -2.8852 C.3       1 <0>         0.0245
     33 C22         6.9030    0.2589   -3.3322 C.3       1 <0>         0.4547
     34 F1          6.7512   -0.9033   -4.0960 F         1 <0>        -0.1729
     35 F2          8.2391    0.3865   -2.9377 F         1 <0>        -0.1727
     36 F3          6.0873    0.1815   -2.1982 F         1 <0>        -0.1604
     37 H3          1.0042    1.8801    0.0026 H         1 <0>         0.0781
     38 H4         -0.5455    1.8639   -0.8728 H         1 <0>         0.0791
     39 H5         -0.5286    1.8543    0.9071 H         1 <0>         0.0741
     40 H6          0.0366   -2.9785   -1.3629 H         1 <0>         0.1769
     41 H7          1.0875   -3.5746    1.6932 H         1 <0>         0.0768
     42 H8         -0.4577   -3.0734    2.4209 H         1 <0>         0.0908
     43 H9         -0.4500   -4.1185    0.9800 H         1 <0>         0.0895
     44 H10        -0.3493   -1.1499   -3.2131 H         1 <0>         0.0763
     45 H11        -0.6795    0.5090   -2.6589 H         1 <0>         0.0792
     46 H12         2.0769   -0.0086   -2.3255 H         1 <0>         0.4083
     47 H13         2.6674    1.5853   -6.7145 H         1 <0>         0.1630
     48 H14         8.3966    1.8297   -5.1295 H         1 <0>         0.1204
     49 H15         7.3975    0.5859   -5.9152 H         1 <0>         0.1032
     50 H16         5.2002    2.2517   -7.7475 H         1 <0>         0.4284
     51 H17         4.9120    3.4491   -4.6745 H         1 <0>         0.1307
     52 H18         4.7531    5.6176   -3.5213 H         1 <0>         0.1371
     53 H19         8.5424    4.6896   -6.5371 H         1 <0>         0.1395
     54 H20        10.1778    5.8494   -5.9436 H         1 <0>         0.0560
     55 H21         9.2472    6.5084   -7.3104 H         1 <0>         0.0558
     56 H22        10.3469    7.5639   -6.3912 H         1 <0>         0.1026
     57 H23         5.4002    8.7727   -2.4419 H         1 <0>         0.1036
     58 H24         4.4278    7.6859   -3.4624 H         1 <0>         0.0566
     59 H25         5.3580    7.0273   -2.0952 H         1 <0>         0.0563
@<TRIPOS>BOND
     1    1    2 1
     2    1   37 1
     3    1   38 1
     4    1   39 1
     5    2    6 2
     6    2    3 1
     7    3    4 2
     8    3    8 1
     9    4    5 1
    10    4   40 1
    11    5    6 1
    12    5    7 1
    13    7   41 1
    14    7   42 1
    15    7   43 1
    16    8    9 1
    17    8   44 1
    18    8   45 1
    19    9   10 am
    20    9   46 1
    21   10   11 2
    22   10   12 1
    23   12   16 2
    24   12   13 1
    25   13   14 2
    26   13   47 1
    27   14   22 1
    28   14   15 1
    29   15   16 1
    30   15   17 1
    31   17   18 1
    32   17   19 1
    33   17   33 1
    34   19   20 1
    35   19   48 1
    36   19   49 1
    37   20   21 1
    38   20   22 1
    39   20   23 1
    40   22   50 1
    41   23   28 ar
    42   23   24 ar
    43   24   25 ar
    44   24   51 1
    45   25   26 ar
    46   25   52 1
    47   26   27 ar
    48   26   31 1
    49   27   28 ar
    50   27   29 1
    51   28   53 1
    52   29   30 1
    53   30   54 1
    54   30   55 1
    55   30   56 1
    56   31   32 1
    57   32   57 1
    58   32   58 1
    59   32   59 1
    60   33   34 1
    61   33   35 1
    62   33   36 1
@<TRIPOS>MOLECULE
ZINC09820851
   42    44     0     0     0
SMALL
USER_CHARGES
N-methyl-1-(2-methyl-3-nitro-benzoyl)-indoline-2-carboxamide
@<TRIPOS>ATOM
      1 C1          3.5982    3.0205    2.0985 C.3       1 <0>        -0.1518
      2 C2          3.6033    4.0699    1.0170 C.ar      1 <0>         0.0566
      3 C3          2.6444    4.0341    0.0029 C.ar      1 <0>        -0.1265
      4 C4          2.6559    5.0101   -0.9948 C.ar      1 <0>        -0.0484
      5 C5          3.6141    6.0027   -0.9735 C.ar      1 <0>        -0.1272
      6 C6          4.5622    6.0316    0.0335 C.ar      1 <0>        -0.0299
      7 C7          4.5562    5.0672    1.0259 C.ar      1 <0>        -0.0524
      8 N1          5.5742    5.1062    2.0997 N.pl3     1 <0>         0.0310
      9 O1          6.4934    5.9030    2.0388 O.2       1 <0>        -0.1610
     10 O2          5.4927    4.3415    3.0442 O.3       1 <0>        -0.1472
     11 C8          1.6206    2.9681   -0.0133 C.2       1 <0>         0.5926
     12 O3          1.9505    1.8063    0.1254 O.2       1 <0>        -0.4914
     13 N2          0.3213    3.2841   -0.1818 N.am      1 <0>        -0.5297
     14 C9         -0.7180    2.3587   -0.3104 C.ar      1 <0>         0.1444
     15 C10        -0.6689    0.9633   -0.2845 C.ar      1 <0>        -0.1243
     16 C11        -1.8241    0.2245   -0.4241 C.ar      1 <0>        -0.0897
     17 C12        -3.0418    0.8600   -0.5860 C.ar      1 <0>        -0.1344
     18 C13        -3.0991    2.2409   -0.6076 C.ar      1 <0>        -0.0757
     19 C14        -1.9438    2.9858   -0.4676 C.ar      1 <0>        -0.1371
     20 C15        -1.7239    4.4819   -0.4550 C.3       1 <0>        -0.0758
     21 C16        -0.2076    4.6483   -0.2634 C.3       1 <0>         0.1069
     22 H1          0.2261    5.1716   -1.1155 H         1 <0>         0.1193
     23 C17         0.0790    5.3973    1.0125 C.2       1 <0>         0.5000
     24 O4          0.6724    4.8492    1.9172 O.2       1 <0>        -0.5113
     25 N3         -0.3240    6.6762    1.1483 N.am      1 <0>        -0.7271
     26 C18        -0.0454    7.4043    2.3886 C.3       1 <0>         0.0872
     27 H2          3.0847    3.4081    2.9784 H         1 <0>         0.0969
     28 H3          3.0817    2.1306    1.7389 H         1 <0>         0.0958
     29 H4          4.6247    2.7639    2.3606 H         1 <0>         0.1009
     30 H5          1.9137    4.9910   -1.7791 H         1 <0>         0.1452
     31 H6          3.6241    6.7585   -1.7449 H         1 <0>         0.1562
     32 H7          5.3103    6.8105    0.0453 H         1 <0>         0.1597
     33 H8          0.2787    0.4609   -0.1581 H         1 <0>         0.1410
     34 H9         -1.7783   -0.8544   -0.4067 H         1 <0>         0.1320
     35 H10        -3.9454    0.2788   -0.6955 H         1 <0>         0.1305
     36 H11        -4.0492    2.7388   -0.7339 H         1 <0>         0.1289
     37 H12        -2.2644    4.9387    0.3740 H         1 <0>         0.0978
     38 H13        -2.0382    4.9221   -1.4013 H         1 <0>         0.1077
     39 H14        -0.7986    7.1145    0.4247 H         1 <0>         0.4048
     40 H15         1.0317    7.4492    2.5494 H         1 <0>         0.0601
     41 H16        -0.4440    8.4160    2.3134 H         1 <0>         0.0816
     42 H17        -0.5166    6.8894    3.2259 H         1 <0>         0.0637
@<TRIPOS>BOND
     1    1    2 1
     2    1   27 1
     3    1   28 1
     4    1   29 1
     5    2    7 ar
     6    2    3 ar
     7    3    4 ar
     8    3   11 1
     9    4    5 ar
    10    4   30 1
    11    5    6 ar
    12    5   31 1
    13    6    7 ar
    14    6   32 1
    15    7    8 1
    16    8    9 2
    17    8   10 1
    18   11   12 2
    19   11   13 am
    20   13   21 1
    21   13   14 1
    22   14   19 ar
    23   14   15 ar
    24   15   16 ar
    25   15   33 1
    26   16   17 ar
    27   16   34 1
    28   17   18 ar
    29   17   35 1
    30   18   19 ar
    31   18   36 1
    32   19   20 1
    33   20   21 1
    34   20   37 1
    35   20   38 1
    36   21   22 1
    37   21   23 1
    38   23   24 2
    39   23   25 am
    40   25   26 1
    41   25   39 1
    42   26   40 1
    43   26   41 1
    44   26   42 1
@<TRIPOS>MOLECULE
ZINC32647311
   40    42     0     0     0
SMALL
USER_CHARGES
N-(3-chloro-2-methyl-phenyl)-2-(2,3-dimethyl-7-oxo-pyrazolo[4,3-d]pyrimidin-6-yl)acetamide
@<TRIPOS>ATOM
      1 C1          1.7678   -6.6622   -2.3185 C.3       1 <0>        -0.1144
      2 C2          1.1557   -5.7585   -3.3576 C.ar      1 <0>        -0.1086
      3 C3          0.7419   -4.4793   -3.0097 C.ar      1 <0>         0.1656
      4 C4          0.1833   -3.6477   -3.9712 C.ar      1 <0>        -0.1252
      5 C5          0.0357   -4.0961   -5.2695 C.ar      1 <0>        -0.0909
      6 C6          0.4430   -5.3718   -5.6125 C.ar      1 <0>        -0.1249
      7 C7          1.0008   -6.2036   -4.6569 C.ar      1 <0>        -0.0178
      8 Cl1         1.5115   -7.8047   -5.0920 Cl        1 <0>        -0.0626
      9 N1          0.8929   -4.0273   -1.6942 N.am      1 <0>        -0.6772
     10 C8          0.9852   -2.7066   -1.4418 C.2       1 <0>         0.5003
     11 O1          1.0383   -1.9160   -2.3601 O.2       1 <0>        -0.5033
     12 C9          1.0225   -2.2122   -0.0187 C.3       1 <0>         0.0817
     13 N2          1.1241   -0.7507   -0.0120 N.am      1 <0>        -0.5331
     14 C10        -0.0151   -0.0043   -0.0065 C.2       1 <0>         0.3587
     15 N3         -0.0339    1.2918    0.0000 N.2       1 <0>        -0.4694
     16 C11         1.1161    2.0152    0.0019 C.2       1 <0>         0.0015
     17 C12         1.4619    3.3321    0.0075 C.2       1 <0>         0.0526
     18 N4          2.8101    3.3891    0.0055 N.pl3     1 <0>        -0.2693
     19 N5          3.3354    2.2146   -0.0009 N.2       1 <0>        -0.2106
     20 C13         2.4015    1.2959   -0.0037 C.2       1 <0>        -0.0642
     21 C14         2.3478   -0.1727   -0.0110 C.2       1 <0>         0.6047
     22 O2          3.3638   -0.8427   -0.0156 O.2       1 <0>        -0.4987
     23 C15         3.5807    4.6350    0.0102 C.3       1 <0>         0.0779
     24 C16         0.5165    4.5056    0.0147 C.3       1 <0>        -0.0806
     25 H1          1.8074   -6.1366   -1.3530 H         1 <0>         0.0634
     26 H2          2.7866   -6.9388   -2.6275 H         1 <0>         0.0800
     27 H3          1.1561   -7.5708   -2.2166 H         1 <0>         0.0794
     28 H4         -0.1360   -2.6511   -3.7042 H         1 <0>         0.1495
     29 H5         -0.3988   -3.4494   -6.0173 H         1 <0>         0.1355
     30 H6          0.3262   -5.7201   -6.6281 H         1 <0>         0.1345
     31 H7          0.9363   -4.7499   -0.8659 H         1 <0>         0.4381
     32 H8          0.1020   -2.5182    0.5000 H         1 <0>         0.1370
     33 H9          1.8939   -2.6427    0.4963 H         1 <0>         0.1349
     34 H10        -0.9615   -0.5246   -0.0081 H         1 <0>         0.2006
     35 H11         4.6556    4.4013    0.0073 H         1 <0>         0.1088
     36 H12         3.3341    5.2153    0.9116 H         1 <0>         0.0973
     37 H13         3.3310    5.2239   -0.8847 H         1 <0>         0.0970
     38 H14         1.0941    5.4417    0.0181 H         1 <0>         0.0727
     39 H15        -0.1157    4.4616    0.9138 H         1 <0>         0.0896
     40 H16        -0.1189    4.4700   -0.8825 H         1 <0>         0.0894
@<TRIPOS>BOND
     1    1    2 1
     2    1   25 1
     3    1   26 1
     4    1   27 1
     5    2    7 ar
     6    2    3 ar
     7    3    4 ar
     8    3    9 1
     9    4    5 ar
    10    4   28 1
    11    5    6 ar
    12    5   29 1
    13    6    7 ar
    14    6   30 1
    15    7    8 1
    16    9   10 am
    17    9   31 1
    18   10   11 2
    19   10   12 1
    20   12   13 1
    21   12   32 1
    22   12   33 1
    23   13   21 am
    24   13   14 1
    25   14   15 2
    26   14   34 1
    27   15   16 1
    28   16   20 1
    29   16   17 2
    30   17   18 1
    31   17   24 1
    32   18   19 1
    33   18   23 1
    34   19   20 2
    35   20   21 1
    36   21   22 2
    37   23   35 1
    38   23   36 1
    39   23   37 1
    40   24   38 1
    41   24   39 1
    42   24   40 1
@<TRIPOS>MOLECULE
ZINC45145104
   52    54     0     0     0
SMALL
USER_CHARGES

@<TRIPOS>ATOM
      1 C1         -0.0254    1.5184    0.0104 C.3       1 <0>        -0.1227
      2 C2          1.4082    2.0527   -0.0035 C.3       1 <0>        -0.1160
      3 C3          2.1240    1.5596   -1.2625 C.3       1 <0>        -0.1265
      4 C4          2.1498    0.0299   -1.2685 C.3       1 <0>         0.1615
      5 C5          0.7162   -0.5045   -1.2546 C.3       1 <0>        -0.1288
      6 C6          0.0004   -0.0113    0.0045 C.3       1 <0>        -0.1176
      7 N1          2.8353   -0.4423   -2.4741 N.am      1 <0>        -0.7425
      8 C7          3.4244   -1.6545   -2.4833 C.2       1 <0>         0.7103
      9 O1          3.4661   -2.3178   -1.4652 O.2       1 <0>        -0.5839
     10 N2          3.9672   -2.1313   -3.6210 N.am      1 <0>        -0.6314
     11 C8          4.0317   -1.2941   -4.8272 C.3       1 <0>         0.1003
     12 C9          5.4892   -1.2273   -5.3000 C.3       1 <0>         0.0977
     13 N3          6.0276   -2.5937   -5.3566 N.am      1 <0>        -0.6133
     14 C10         5.9630   -3.4309   -4.1504 C.3       1 <0>         0.0904
     15 C11         4.5106   -3.4957   -3.6760 C.3       1 <0>         0.1151
     16 C12         6.5704   -3.0705   -6.4943 C.2       1 <0>         0.4997
     17 O2          6.6177   -2.3703   -7.4835 O.2       1 <0>        -0.5247
     18 C13         7.1185   -4.4736   -6.5374 C.3       1 <0>         0.1084
     19 N4          7.6484   -4.7501   -7.8749 N.am      1 <0>        -0.6073
     20 C14         6.8608   -5.3145   -8.9773 C.3       1 <0>         0.1049
     21 C15         7.6750   -5.0223  -10.2572 C.3       1 <0>        -0.1305
     22 C16         9.1125   -4.9121   -9.6982 C.3       1 <0>        -0.1530
     23 C17         8.9168   -4.5140   -8.2519 C.2       1 <0>         0.5233
     24 O3          9.7797   -4.0517   -7.5359 O.2       1 <0>        -0.5285
     25 H1         -0.5354    1.8697    0.9074 H         1 <0>         0.0648
     26 H2         -0.5551    1.8763   -0.8724 H         1 <0>         0.0625
     27 H3          1.3898    3.1426    0.0008 H         1 <0>         0.0680
     28 H4          1.9379    1.6949    0.8794 H         1 <0>         0.0661
     29 H5          1.5943    1.9175   -2.1454 H         1 <0>         0.0671
     30 H6          3.1454    1.9403   -1.2725 H         1 <0>         0.0686
     31 H7          2.6796   -0.3280   -0.3856 H         1 <0>         0.0901
     32 H8          0.1865   -0.1466   -2.1374 H         1 <0>         0.0620
     33 H9          0.7346   -1.5943   -1.2588 H         1 <0>         0.0662
     34 H10         0.5301   -0.3692    0.8873 H         1 <0>         0.0652
     35 H11        -1.0209   -0.3920    0.0144 H         1 <0>         0.0652
     36 H12         2.8652    0.1175   -3.2657 H         1 <0>         0.3939
     37 H13         3.4128   -1.7322   -5.6102 H         1 <0>         0.0769
     38 H14         3.6761   -0.2902   -4.5951 H         1 <0>         0.0889
     39 H15         5.5319   -0.7760   -6.2912 H         1 <0>         0.1060
     40 H16         6.0744   -0.6323   -4.5988 H         1 <0>         0.0742
     41 H17         6.3186   -4.4348   -4.3825 H         1 <0>         0.0981
     42 H18         6.5819   -2.9927   -3.3674 H         1 <0>         0.0807
     43 H19         4.4712   -3.9454   -2.6839 H         1 <0>         0.1103
     44 H20         3.9266   -4.0942   -4.3752 H         1 <0>         0.0721
     45 H21         7.9169   -4.5745   -5.8022 H         1 <0>         0.1142
     46 H22         6.3222   -5.1819   -6.3085 H         1 <0>         0.1117
     47 H23         6.7412   -6.3896   -8.8435 H         1 <0>         0.0757
     48 H24         5.8861   -4.8296   -9.0313 H         1 <0>         0.0788
     49 H25         7.5945   -5.8455  -10.9671 H         1 <0>         0.0928
     50 H26         7.3609   -4.0836  -10.7135 H         1 <0>         0.0845
     51 H27         9.6235   -5.8723   -9.7678 H         1 <0>         0.1067
     52 H28         9.6709   -4.1422  -10.2307 H         1 <0>         0.1038
@<TRIPOS>BOND
     1    1    6 1
     2    1    2 1
     3    1   25 1
     4    1   26 1
     5    2    3 1
     6    2   27 1
     7    2   28 1
     8    3    4 1
     9    3   29 1
    10    3   30 1
    11    4    5 1
    12    4    7 1
    13    4   31 1
    14    5    6 1
    15    5   32 1
    16    5   33 1
    17    6   34 1
    18    6   35 1
    19    7    8 am
    20    7   36 1
    21    8    9 2
    22    8   10 am
    23   10   15 1
    24   10   11 1
    25   11   12 1
    26   11   37 1
    27   11   38 1
    28   12   13 1
    29   12   39 1
    30   12   40 1
    31   13   14 1
    32   13   16 am
    33   14   15 1
    34   14   41 1
    35   14   42 1
    36   15   43 1
    37   15   44 1
    38   16   17 2
    39   16   18 1
    40   18   19 1
    41   18   45 1
    42   18   46 1
    43   19   23 am
    44   19   20 1
    45   20   21 1
    46   20   47 1
    47   20   48 1
    48   21   22 1
    49   21   49 1
    50   21   50 1
    51   22   23 1
    52   22   51 1
    53   22   52 1
    54   23   24 2
@<TRIPOS>MOLECULE
ZINC32095521
   39    42     0     0     0
SMALL
USER_CHARGES

@<TRIPOS>ATOM
      1 C1         -0.0184    1.5028    0.0103 C.3       1 <0>        -0.0817
      2 C2          0.0021   -0.0041    0.0020 C.2       1 <0>         0.1369
      3 C3          0.0079   -0.8059   -1.1238 C.2       1 <0>        -0.2925
      4 C4          0.0320   -2.1294   -0.7058 C.2       1 <0>         0.3295
      5 N1          0.0339   -2.1194    0.6480 N.pl3     1 <0>        -0.2965
      6 N2          0.0231   -0.7777    1.0637 N.2       1 <0>        -0.2828
      7 C5          0.0486   -3.2420    1.4819 C.ar      1 <0>         0.2797
      8 C6          0.5542   -3.1436    2.7778 C.ar      1 <0>        -0.0732
      9 C7          0.5476   -4.2823    3.5655 C.ar      1 <0>        -0.1134
     10 C8          0.0362   -5.4556    3.0142 C.ar      1 <0>         0.2561
     11 N3         -0.4229   -5.4549    1.7740 N.ar      1 <0>        -0.2721
     12 N4         -0.4220   -4.3984    1.0452 N.ar      1 <0>        -0.1890
     13 O1          0.0096   -6.5969    3.7486 O.3       1 <0>        -0.2960
     14 C9         -0.5286   -7.7612    3.1188 C.3       1 <0>         0.0322
     15 N5          0.0571   -3.1598   -1.5982 N.2       1 <0>        -0.5446
     16 C10         0.3444   -2.9127   -2.8411 C.2       1 <0>         0.4109
     17 C11         0.7165   -1.5522   -3.3534 C.3       1 <0>        -0.1083
     18 C12        -0.0116   -0.4413   -2.5870 C.3       1 <0>         0.0924
     19 H1         -1.0417   -0.3656   -2.9353 H         1 <0>         0.1080
     20 C13         0.6973    0.8721   -2.7958 C.2       1 <0>        -0.1324
     21 C14         0.2136    2.0316   -3.3045 C.2       1 <0>        -0.1470
     22 C15         1.0559    3.1232   -3.4031 C.2       1 <0>        -0.1557
     23 C16         2.3406    3.0018   -2.9882 C.2       1 <0>        -0.1704
     24 S1          2.3897    1.3068   -2.4299 S.3       1 <0>         0.0446
     25 O2          0.3065   -3.9357   -3.7193 O.3       1 <0>        -0.4524
     26 H2          1.0042    1.8801    0.0026 H         1 <0>         0.0847
     27 H3         -0.5455    1.8639   -0.8728 H         1 <0>         0.0843
     28 H4         -0.5286    1.8543    0.9071 H         1 <0>         0.0772
     29 H5          0.9394   -2.2079    3.1553 H         1 <0>         0.1687
     30 H6          0.9276   -4.2619    4.5762 H         1 <0>         0.1683
     31 H7         -0.4907   -8.6004    3.8134 H         1 <0>         0.1051
     32 H8         -1.5632   -7.5736    2.8317 H         1 <0>         0.0649
     33 H9          0.0577   -7.9979    2.2309 H         1 <0>         0.0649
     34 H10         1.7922   -1.4133   -3.2453 H         1 <0>         0.1103
     35 H11         0.4549   -1.4860   -4.4095 H         1 <0>         0.1167
     36 H12        -0.8143    2.1015   -3.6282 H         1 <0>         0.1355
     37 H13         0.6959    4.0587   -3.8051 H         1 <0>         0.1352
     38 H14         3.1288    3.7401   -2.9909 H         1 <0>         0.1857
     39 H15         0.0605   -4.7837   -3.3249 H         1 <0>         0.4162
@<TRIPOS>BOND
     1    1    2 1
     2    1   26 1
     3    1   27 1
     4    1   28 1
     5    2    6 2
     6    2    3 1
     7    3   18 1
     8    3    4 2
     9    4    5 1
    10    4   15 1
    11    5    6 1
    12    5    7 1
    13    7   12 ar
    14    7    8 ar
    15    8    9 ar
    16    8   29 1
    17    9   10 ar
    18    9   30 1
    19   10   11 ar
    20   10   13 1
    21   11   12 ar
    22   13   14 1
    23   14   31 1
    24   14   32 1
    25   14   33 1
    26   15   16 2
    27   16   17 1
    28   16   25 1
    29   17   18 1
    30   17   34 1
    31   17   35 1
    32   18   19 1
    33   18   20 1
    34   20   24 1
    35   20   21 2
    36   21   22 1
    37   21   36 1
    38   22   23 2
    39   22   37 1
    40   23   24 1
    41   23   38 1
    42   25   39 1
@<TRIPOS>MOLECULE
ZINC10651012
   46    49     0     0     0
SMALL
USER_CHARGES

@<TRIPOS>ATOM
      1 C1         -0.0320    1.5054    0.0199 C.3       1 <0>        -0.1718
      2 C2         -0.0009   -0.0242    0.0091 C.3       1 <0>         0.1231
      3 N1          0.6853   -0.4903   -1.1983 N.pl3     1 <0>        -0.4838
      4 C3          0.0852   -0.7604   -2.4239 C.ar      1 <0>         0.0837
      5 C4         -1.2261   -0.6889   -2.8729 C.ar      1 <0>        -0.0970
      6 C5         -1.5261   -1.0295   -4.1765 C.ar      1 <0>        -0.1032
      7 C6         -0.5243   -1.4429   -5.0387 C.ar      1 <0>        -0.1028
      8 C7          0.7831   -1.5175   -4.6021 C.ar      1 <0>        -0.0984
      9 C8          1.0954   -1.1768   -3.2934 C.ar      1 <0>         0.0764
     10 N2          2.2881   -1.1510   -2.5779 N.pl3     1 <0>        -0.6075
     11 C9          2.0183   -0.7274   -1.3152 C.2       1 <0>         0.6531
     12 N3          2.9164   -0.5730   -0.3458 N.2       1 <0>        -0.6652
     13 C10         4.1786   -0.9398   -0.5444 C.2       1 <0>         0.4948
     14 O1          4.5338   -1.3271   -1.6409 O.2       1 <0>        -0.5850
     15 C11         5.1692   -0.8758    0.5895 C.3       1 <0>         0.1066
     16 N4          6.4804   -1.3291    0.1186 N.am      1 <0>        -0.5718
     17 C12         6.8736   -2.6165    0.1662 C.2       1 <0>         0.5302
     18 O2          6.1689   -3.5757    0.3962 O.2       1 <0>        -0.4682
     19 C13         8.3831   -2.6426   -0.1263 C.3       1 <0>        -0.1005
     20 H1          8.7128   -3.5397   -0.6504 H         1 <0>         0.1358
     21 C14         9.0496   -2.4639    1.2401 C.3       1 <0>        -0.0836
     22 C15        10.3132   -1.6774    1.1824 C.2       1 <0>        -0.1567
     23 C16        10.6651   -0.9162    0.2003 C.2       1 <0>        -0.1449
     24 C17         9.8572   -0.7617   -1.0494 C.3       1 <0>        -0.0756
     25 C18         8.4855   -1.3663   -0.9771 C.3       1 <0>        -0.1228
     26 H2          8.1682   -1.6296   -1.9862 H         1 <0>         0.1187
     27 C19         7.4038   -0.4944   -0.4086 C.2       1 <0>         0.5473
     28 O3          7.3674    0.7173   -0.4184 O.2       1 <0>        -0.4672
     29 H3          0.9880    1.8896    0.0105 H         1 <0>         0.0681
     30 H4         -0.5635    1.8642   -0.8615 H         1 <0>         0.0598
     31 H5         -0.5426    1.8522    0.9183 H         1 <0>         0.0813
     32 H6          0.5306   -0.3830    0.8905 H         1 <0>         0.1072
     33 H7         -1.0209   -0.4084    0.0185 H         1 <0>         0.0943
     34 H8         -2.0103   -0.3676   -2.2035 H         1 <0>         0.1347
     35 H9         -2.5466   -0.9737   -4.5255 H         1 <0>         0.1389
     36 H10        -0.7671   -1.7084   -6.0570 H         1 <0>         0.1385
     37 H11         1.5614   -1.8407   -5.2775 H         1 <0>         0.1344
     38 H12         5.2466    0.1510    0.9468 H         1 <0>         0.1262
     39 H13         4.8329   -1.5191    1.4026 H         1 <0>         0.1228
     40 H14         8.3517   -1.9558    1.9057 H         1 <0>         0.0758
     41 H15         9.2691   -3.4483    1.6535 H         1 <0>         0.0916
     42 H16        10.9851   -1.7487    2.0249 H         1 <0>         0.1129
     43 H17        11.5888   -0.3631    0.2855 H         1 <0>         0.1173
     44 H18         9.7628    0.3007   -1.2740 H         1 <0>         0.0921
     45 H19        10.3898   -1.2422   -1.8701 H         1 <0>         0.0911
     46 H20         3.1627   -1.3907   -2.9222 H         1 <0>         0.4493
@<TRIPOS>BOND
     1    1    2 1
     2    1   29 1
     3    1   30 1
     4    1   31 1
     5    2    3 1
     6    2   32 1
     7    2   33 1
     8    3   11 1
     9    3    4 1
    10    4    9 ar
    11    4    5 ar
    12    5    6 ar
    13    5   34 1
    14    6    7 ar
    15    6   35 1
    16    7    8 ar
    17    7   36 1
    18    8    9 ar
    19    8   37 1
    20    9   10 1
    21   10   11 1
    22   10   46 1
    23   11   12 2
    24   12   13 1
    25   13   14 2
    26   13   15 1
    27   15   16 1
    28   15   38 1
    29   15   39 1
    30   16   27 am
    31   16   17 am
    32   17   18 2
    33   17   19 1
    34   19   20 1
    35   19   25 1
    36   19   21 1
    37   21   22 1
    38   21   40 1
    39   21   41 1
    40   22   23 2
    41   22   42 1
    42   23   24 1
    43   23   43 1
    44   24   25 1
    45   24   44 1
    46   24   45 1
    47   25   26 1
    48   25   27 1
    49   27   28 2
@<TRIPOS>MOLECULE
ZINC67338642
   26    29     0     0     0
SMALL
USER_CHARGES

@<TRIPOS>ATOM
      1 C1         -0.0166    1.3715    0.0096 C.ar      1 <0>        -0.0332
      2 C2          1.1861    2.1153    0.0021 C.ar      1 <0>         0.1314
      3 C3          2.3854    1.3691   -0.0138 C.ar      1 <0>        -0.1487
      4 C4          2.4046   -0.0042   -0.0213 C.ar      1 <0>        -0.0183
      5 C5          1.2112   -0.7048   -0.0132 C.ar      1 <0>         0.0429
      6 C6          0.0021   -0.0041    0.0020 C.ar      1 <0>         0.0487
      7 O1         -1.0200   -0.9141    0.0076 O.3       1 <0>        -0.2813
      8 C7         -0.4336   -2.1571   -0.4196 C.3       1 <0>         0.5732
      9 O2          0.9447   -2.0428   -0.0181 O.3       1 <0>        -0.2776
     10 F1         -0.5316   -2.2950   -1.8083 F         1 <0>        -0.1491
     11 F2         -1.0451   -3.2366    0.2269 F         1 <0>        -0.1116
     12 S1          3.6246    2.6424   -0.0184 S.3       1 <0>         0.0683
     13 C8          2.5106    4.0398    0.0009 C.2       1 <0>         0.3809
     14 N1          1.3337    3.4593    0.0087 N.2       1 <0>        -0.5053
     15 N2          2.8126    5.3916    0.0069 N.am      1 <0>        -0.6019
     16 C9          1.8205    6.3037    0.0219 C.2       1 <0>         0.6063
     17 O3          0.6602    5.9399    0.0302 O.2       1 <0>        -0.4456
     18 C10         2.1419    7.7422    0.0282 C.2       1 <0>        -0.0456
     19 C11         1.1718    8.7296    0.0489 C.2       1 <0>        -0.2130
     20 S2          2.1006   10.1286    0.0467 S.3       1 <0>         0.4639
     21 N3          3.5792    9.4744    0.0215 N.2       1 <0>        -0.2414
     22 N4          3.3865    8.2031    0.0203 N.2       1 <0>        -0.2239
     23 H1         -0.9634    1.8908    0.0260 H         1 <0>         0.1577
     24 H2          3.3455   -0.5342   -0.0338 H         1 <0>         0.1586
     25 H3          3.7382    5.6818    0.0003 H         1 <0>         0.4415
     26 H4          0.0968    8.6268    0.0626 H         1 <0>         0.2230
@<TRIPOS>BOND
     1    1    6 ar
     2    1    2 ar
     3    1   23 1
     4    2   14 1
     5    2    3 ar
     6    3    4 ar
     7    3   12 1
     8    4    5 ar
     9    4   24 1
    10    5    9 1
    11    5    6 ar
    12    6    7 1
    13    7    8 1
    14    8    9 1
    15    8   10 1
    16    8   11 1
    17   12   13 1
    18   13   14 2
    19   13   15 1
    20   15   16 am
    21   15   25 1
    22   16   17 2
    23   16   18 1
    24   18   22 1
    25   18   19 2
    26   19   20 1
    27   19   26 1
    28   20   21 1
    29   21   22 2
@<TRIPOS>MOLECULE
ZINC09086806
   46    50     0     0     0
SMALL
USER_CHARGES
3-hydroxy-2-(4-oxo-3H-quinazolin-2-yl)-3-(9,10,10-trioxothioxanthen-3-yl)-prop-2-enenitrile
@<TRIPOS>ATOM
      1 C1          2.2748   15.7577   -4.4295 C.ar      1 <0>        -0.1216
      2 C2          1.8546   14.6953   -5.2197 C.ar      1 <0>        -0.0746
      3 C3          1.7856   13.4278   -4.7150 C.ar      1 <0>        -0.0916
      4 C4          2.1410   13.1894   -3.3834 C.ar      1 <0>         0.1412
      5 C5          2.5689   14.2700   -2.5779 C.ar      1 <0>        -0.1830
      6 C6          2.6320   15.5549   -3.1142 C.ar      1 <0>        -0.0453
      7 C7          2.9365   13.9942   -1.1817 C.2       1 <0>         0.5584
      8 O1          3.3117   14.8836   -0.4402 O.2       1 <0>        -0.4982
      9 N1          2.8365   12.7155   -0.7497 N.am      1 <0>        -0.6498
     10 H1          3.0668   12.4968    0.1668 H         1 <0>         0.4184
     11 C8          2.4168   11.7272   -1.6012 C.2       1 <0>         0.4128
     12 N2          2.0845   11.9539   -2.8501 N.2       1 <0>        -0.4514
     13 C9          2.3293   10.3518   -1.0905 C.3       1 <0>         0.0242
     14 C10         3.1533    9.3664   -1.6095 C.2       1 <0>         0.3896
     15 C11         2.9661    7.9619   -1.2064 C.ar      1 <0>        -0.1318
     16 C12         4.0629    7.1977   -0.7922 C.ar      1 <0>        -0.0162
     17 C13         3.8851    5.8885   -0.4155 C.ar      1 <0>        -0.0755
     18 C14         2.6076    5.3095   -0.4445 C.ar      1 <0>        -0.0393
     19 C15         1.5161    6.0736   -0.8599 C.ar      1 <0>        -0.6121
     20 C16         1.6918    7.3868   -1.2366 C.ar      1 <0>         0.0152
     21 S1         -0.0970    5.3666   -0.9062 S.o2      1 <0>         2.5747
     22 O2         -0.7451    5.7539    0.2977 O.2       1 <0>        -0.9062
     23 O3         -0.6330    5.6609   -2.1889 O.2       1 <0>        -0.9094
     24 C17         0.1008    3.6177   -0.8322 C.ar      1 <0>        -0.6074
     25 C18        -0.9513    2.7964   -1.1843 C.ar      1 <0>        -0.0261
     26 C19        -0.8084    1.4214   -1.1377 C.ar      1 <0>        -0.0944
     27 C20         0.3889    0.8613   -0.7269 C.ar      1 <0>        -0.0740
     28 C21         1.4461    1.6697   -0.3724 C.ar      1 <0>        -0.0688
     29 C22         1.3124    3.0641   -0.4208 C.ar      1 <0>        -0.0806
     30 C23         2.4528    3.9060   -0.0331 C.2       1 <0>         0.4140
     31 O4          3.3168    3.4147    0.6666 O.2       1 <0>        -0.3994
     32 O5          4.1282    9.6934   -2.4850 O.2       1 <0>        -0.4444
     33 C24         1.3922   10.0302   -0.0565 C.1       1 <0>         0.1878
     34 N3          0.6488    9.7751    0.7638 N.1       1 <0>        -0.3237
     35 H2          2.3223   16.7514   -4.8498 H         1 <0>         0.1385
     36 H3          1.5787   14.8741   -6.2485 H         1 <0>         0.1398
     37 H4          1.4570   12.6123   -5.3421 H         1 <0>         0.1462
     38 H5          2.9577   16.3844   -2.5041 H         1 <0>         0.1427
     39 H6          5.0491    7.6373   -0.7680 H         1 <0>         0.1597
     40 H7          4.7336    5.3016   -0.0960 H         1 <0>         0.1613
     41 H8          0.8434    7.9737   -1.5563 H         1 <0>         0.1551
     42 H9         -1.8886    3.2293   -1.5012 H         1 <0>         0.1484
     43 H10        -1.6337    0.7838   -1.4184 H         1 <0>         0.1481
     44 H11         0.4958   -0.2127   -0.6885 H         1 <0>         0.1465
     45 H12         2.3798    1.2284   -0.0562 H         1 <0>         0.1486
     46 H13         2.9601   10.2406   -0.3226 H         1 <0>         0.1536
@<TRIPOS>BOND
     1    1    6 ar
     2    1    2 ar
     3    1   35 1
     4    2    3 ar
     5    2   36 1
     6    3    4 ar
     7    3   37 1
     8    4   12 1
     9    4    5 ar
    10    5    6 ar
    11    5    7 1
    12    6   38 1
    13    7    8 2
    14    7    9 am
    15    9   10 1
    16    9   11 1
    17   11   12 2
    18   11   13 1
    19   13   33 1
    20   13   46 1
    21   13   14 1
    22   14   15 1
    23   14   32 2
    24   15   20 ar
    25   15   16 ar
    26   16   17 ar
    27   16   39 1
    28   17   18 ar
    29   17   40 1
    30   18   30 1
    31   18   19 ar
    32   19   20 ar
    33   19   21 1
    34   20   41 1
    35   21   22 2
    36   21   23 2
    37   21   24 1
    38   24   29 ar
    39   24   25 ar
    40   25   26 ar
    41   25   42 1
    42   26   27 ar
    43   26   43 1
    44   27   28 ar
    45   27   44 1
    46   28   29 ar
    47   28   45 1
    48   29   30 1
    49   30   31 2
    50   33   34 3
@<TRIPOS>MOLECULE
ZINC15349211
   43    46     0     0     0
SMALL
USER_CHARGES
(6Z)-6-[(6-bromo-1,3-benzodioxol-5-yl)methylene]-3-methyl-1-propyl-7H-pyrrolo[4,5-e]pyrimidine-2,4,5-trione
@<TRIPOS>ATOM
      1 C1         -2.0532    0.7704    5.8290 C.3       1 <0>        -0.1499
      2 C2         -2.8414    2.0792    5.9086 C.3       1 <0>        -0.1439
      3 C3         -1.8689    3.2532    6.0382 C.3       1 <0>         0.0947
      4 N1         -2.6237    4.5065    6.1145 N.am      1 <0>        -0.5211
      5 C4         -2.9299    5.1810    4.9577 C.2       1 <0>         0.4850
      6 C5         -3.6515    6.3744    5.0582 C.2       1 <0>        -0.4261
      7 C6         -4.0468    6.8514    6.3817 C.2       1 <0>         0.5902
      8 O1         -4.6760    7.8856    6.5097 O.2       1 <0>        -0.4886
      9 N2         -3.6971    6.1159    7.4598 N.am      1 <0>        -0.5572
     10 C7         -3.0036    4.9751    7.3132 C.2       1 <0>         0.7152
     11 O2         -2.7075    4.3412    8.3073 O.2       1 <0>        -0.5194
     12 C8         -4.0781    6.5666    8.8007 C.3       1 <0>         0.0812
     13 C9         -3.8445    6.8863    3.7018 C.2       1 <0>         0.4616
     14 O3         -4.4259    7.9056    3.3678 O.2       1 <0>        -0.4123
     15 C10        -3.1838    5.9027    2.8273 C.2       1 <0>         0.0515
     16 C11        -3.1005    5.9521    1.4723 C.2       1 <0>        -0.0419
     17 C12        -2.2748    4.9762    0.7520 C.ar      1 <0>        -0.0303
     18 C13        -1.1512    4.4127    1.3709 C.ar      1 <0>        -0.1077
     19 C14        -0.3781    3.4954    0.6890 C.ar      1 <0>         0.0566
     20 C15        -0.7159    3.1289   -0.6158 C.ar      1 <0>         0.0542
     21 C16        -1.8292    3.6863   -1.2302 C.ar      1 <0>        -0.0663
     22 C17        -2.6073    4.6038   -0.5573 C.ar      1 <0>        -0.0644
     23 Br1        -4.1216    5.3599   -1.4005 Br        1 <0>        -0.0058
     24 O4          0.1965    2.2179   -1.0609 O.3       1 <0>        -0.2971
     25 C18         1.3245    2.3372   -0.1744 C.3       1 <0>         0.2112
     26 O5          0.7490    2.8136    1.0564 O.3       1 <0>        -0.3013
     27 N3         -2.6657    4.9086    3.6549 N.pl3     1 <0>        -0.6167
     28 H1         -1.3952    0.7948    4.9603 H         1 <0>         0.0583
     29 H2         -1.4566    0.6499    6.7332 H         1 <0>         0.0639
     30 H3         -2.7460   -0.0660    5.7366 H         1 <0>         0.0665
     31 H4         -3.4994    2.0548    6.7773 H         1 <0>         0.0799
     32 H5         -3.4380    2.1997    5.0043 H         1 <0>         0.0663
     33 H6         -1.2110    3.2776    5.1695 H         1 <0>         0.0908
     34 H7         -1.2724    3.1328    6.9425 H         1 <0>         0.1185
     35 H8         -4.6314    7.5028    8.7258 H         1 <0>         0.1058
     36 H9         -4.7052    5.8108    9.2735 H         1 <0>         0.0811
     37 H10        -3.1813    6.7217    9.4004 H         1 <0>         0.0812
     38 H11        -3.6420    6.7097    0.9253 H         1 <0>         0.1763
     39 H12        -0.8905    4.6959    2.3800 H         1 <0>         0.1436
     40 H13        -2.0864    3.4001   -2.2393 H         1 <0>         0.1551
     41 H14         1.7983    1.3670   -0.0251 H         1 <0>         0.1407
     42 H15         2.0437    3.0573   -0.5646 H         1 <0>         0.0937
     43 H16        -2.1802    4.1291    3.3424 H         1 <0>         0.4265
@<TRIPOS>BOND
     1    1    2 1
     2    1   28 1
     3    1   29 1
     4    1   30 1
     5    2    3 1
     6    2   31 1
     7    2   32 1
     8    3    4 1
     9    3   33 1
    10    3   34 1
    11    4   10 am
    12    4    5 1
    13    5   27 1
    14    5    6 2
    15    6    7 1
    16    6   13 1
    17    7    8 2
    18    7    9 am
    19    9   10 am
    20    9   12 1
    21   10   11 2
    22   12   35 1
    23   12   36 1
    24   12   37 1
    25   13   14 2
    26   13   15 1
    27   15   16 2
    28   15   27 1
    29   16   17 1
    30   16   38 1
    31   17   22 ar
    32   17   18 ar
    33   18   19 ar
    34   18   39 1
    35   19   26 1
    36   19   20 ar
    37   20   21 ar
    38   20   24 1
    39   21   22 ar
    40   21   40 1
    41   22   23 1
    42   24   25 1
    43   25   26 1
    44   25   41 1
    45   25   42 1
    46   27   43 1
@<TRIPOS>MOLECULE
ZINC32959047
   59    62     0     0     0
SMALL
USER_CHARGES
(2R)-2,6-dimethyl-7-[[4-(piperidine-1-carbonyl)-1-piperidyl]sulfonyl]-4H-1,4-benzoxazin-3-one
@<TRIPOS>ATOM
      1 C1          0.3951    1.5522    2.5606 C.3       1 <0>        -0.1905
      2 C2          1.8492    1.9144    2.7206 C.ar      1 <0>         0.0400
      3 C3          2.5917    1.3511    3.7429 C.ar      1 <0>        -0.1492
      4 C4          3.9276    1.6848    3.8880 C.ar      1 <0>         0.1626
      5 C5          4.5205    2.5866    3.0051 C.ar      1 <0>         0.0479
      6 C6          3.7730    3.1413    1.9815 C.ar      1 <0>        -0.0047
      7 C7          2.4371    2.8081    1.8451 C.ar      1 <0>        -0.6821
      8 S1          1.4833    3.5203    0.5460 S.o2      1 <0>         2.6967
      9 O1          2.3371    4.4315   -0.1322 O.2       1 <0>        -0.9514
     10 O2          0.2469    3.9192    1.1216 O.2       1 <0>        -0.9480
     11 N1          1.1363    2.3082   -0.5277 N.pl3     1 <0>        -0.9954
     12 C8         -0.1149    1.5459   -0.4174 C.3       1 <0>         0.1041
     13 C9          0.2207    0.0520   -0.3683 C.3       1 <0>        -0.1269
     14 C10         1.0752   -0.3150   -1.5838 C.3       1 <0>        -0.1045
     15 C11         2.3849    0.4757   -1.5462 C.3       1 <0>        -0.1261
     16 C12         2.0739    1.9744   -1.6086 C.3       1 <0>         0.1216
     17 C13         1.3791   -1.7908   -1.5567 C.2       1 <0>         0.5198
     18 O3          1.5444   -2.3565   -0.4967 O.2       1 <0>        -0.5377
     19 N2          1.4671   -2.4820   -2.7104 N.am      1 <0>        -0.6128
     20 C14         1.3846   -1.7917   -4.0047 C.3       1 <0>         0.1001
     21 C15         2.6153   -2.1731   -4.8413 C.3       1 <0>        -0.1360
     22 C16         2.7008   -3.6975   -4.9466 C.3       1 <0>        -0.1223
     23 C17         2.8637   -4.2989   -3.5488 C.3       1 <0>        -0.1354
     24 C18         1.6414   -3.9408   -2.6976 C.3       1 <0>         0.1073
     25 O4          5.8330    2.9077    3.1581 O.3       1 <0>        -0.3010
     26 C19         6.3378    2.9287    4.4959 C.3       1 <0>         0.0756
     27 H1          5.9156    3.8280    4.9681 H         1 <0>         0.1074
     28 C20         5.8850    1.6910    5.2278 C.2       1 <0>         0.4964
     29 O5          6.5832    1.2053    6.0926 O.2       1 <0>        -0.4958
     30 N3          4.6988    1.1246    4.9163 N.am      1 <0>        -0.6751
     31 C21         7.8669    2.9700    4.4626 C.3       1 <0>        -0.1372
     32 H2          0.1080    0.8340    3.3427 H         1 <0>         0.0859
     33 H3          0.2369    1.0992    1.5708 H         1 <0>         0.1001
     34 H4         -0.2208    2.4591    2.6516 H         1 <0>         0.1134
     35 H5          2.1305    0.6533    4.4261 H         1 <0>         0.1437
     36 H6          4.2304    3.8361    1.2927 H         1 <0>         0.1589
     37 H7         -0.6435    1.8398    0.5014 H         1 <0>         0.1093
     38 H8         -0.7509    1.7568   -1.2898 H         1 <0>         0.0840
     39 H9          0.7785   -0.1684    0.5538 H         1 <0>         0.0880
     40 H10        -0.7103   -0.5336   -0.3825 H         1 <0>         0.0839
     41 H11         0.5266   -0.0851   -2.5091 H         1 <0>         0.0983
     42 H12         2.9229    0.2499   -0.6137 H         1 <0>         0.0792
     43 H13         3.0087    0.1931   -2.4070 H         1 <0>         0.0822
     44 H14         1.6176    2.2205   -2.5788 H         1 <0>         0.0833
     45 H15         3.0007    2.5532   -1.4819 H         1 <0>         0.0978
     46 H16         0.4664   -2.0995   -4.5265 H         1 <0>         0.0716
     47 H17         1.3656   -0.7043   -3.8398 H         1 <0>         0.0902
     48 H18         2.5236   -1.7385   -5.8476 H         1 <0>         0.0783
     49 H19         3.5231   -1.7855   -4.3559 H         1 <0>         0.0683
     50 H20         1.7802   -4.0854   -5.4069 H         1 <0>         0.0656
     51 H21         3.5658   -3.9743   -5.5672 H         1 <0>         0.0675
     52 H22         2.9495   -5.3927   -3.6280 H         1 <0>         0.0761
     53 H23         3.7715   -3.8930   -3.0785 H         1 <0>         0.0666
     54 H24         1.7941   -4.2827   -1.6633 H         1 <0>         0.0930
     55 H25         0.7435   -4.4210   -3.1137 H         1 <0>         0.0678
     56 H26         4.3353    0.2374    5.4555 H         1 <0>         0.4459
     57 H27         8.2557    2.9862    5.4915 H         1 <0>         0.0953
     58 H28         8.1978    3.8746    3.9313 H         1 <0>         0.0847
     59 H29         8.2465    2.0790    3.9411 H         1 <0>         0.0738
@<TRIPOS>BOND
     1    1    2 1
     2    1   32 1
     3    1   33 1
     4    1   34 1
     5    2    7 ar
     6    2    3 ar
     7    3    4 ar
     8    3   35 1
     9    4   30 1
    10    4    5 ar
    11    5    6 ar
    12    5   25 1
    13    6    7 ar
    14    6   36 1
    15    7    8 1
    16    8    9 2
    17    8   10 2
    18    8   11 1
    19   11   16 1
    20   11   12 1
    21   12   13 1
    22   12   37 1
    23   12   38 1
    24   13   14 1
    25   13   39 1
    26   13   40 1
    27   14   15 1
    28   14   17 1
    29   14   41 1
    30   15   16 1
    31   15   42 1
    32   15   43 1
    33   16   44 1
    34   16   45 1
    35   17   18 2
    36   17   19 am
    37   19   24 1
    38   19   20 1
    39   20   21 1
    40   20   46 1
    41   20   47 1
    42   21   22 1
    43   21   48 1
    44   21   49 1
    45   22   23 1
    46   22   50 1
    47   22   51 1
    48   23   24 1
    49   23   52 1
    50   23   53 1
    51   24   54 1
    52   24   55 1
    53   25   26 1
    54   26   27 1
    55   26   28 1
    56   26   31 1
    57   28   29 2
    58   28   30 am
    59   30   56 1
    60   31   57 1
    61   31   58 1
    62   31   59 1
@<TRIPOS>MOLECULE
ZINC40087722
   44    47     0     0     0
SMALL
USER_CHARGES

@<TRIPOS>ATOM
      1 C1         -0.4839    1.5880   -0.0922 C.3       1 <0>        -0.0806
      2 C2         -0.1747    0.1146   -0.0242 C.2       1 <0>         0.1276
      3 C3          0.0196   -0.7445   -1.1292 C.2       1 <0>        -0.2859
      4 C4          0.2786   -2.0042   -0.6258 C.2       1 <0>         0.1453
      5 N1          0.2435   -1.9158    0.7159 N.pl3     1 <0>        -0.3132
      6 N2         -0.0341   -0.5895    1.0655 N.2       1 <0>        -0.2749
      7 C5          0.4550   -2.9731    1.6131 C.ar      1 <0>         0.0934
      8 C6          1.5484   -3.8128    1.4525 C.ar      1 <0>        -0.0600
      9 C7          1.7552   -4.8534    2.3367 C.ar      1 <0>        -0.1453
     10 C8          0.8728   -5.0605    3.3840 C.ar      1 <0>         0.1451
     11 C9         -0.2190   -4.2250    3.5476 C.ar      1 <0>        -0.1796
     12 C10        -0.4271   -3.1781    2.6680 C.ar      1 <0>         0.1540
     13 F1         -1.4890   -2.3589    2.8307 F         1 <0>        -0.1106
     14 F2          1.0776   -6.0795    4.2470 F         1 <0>        -0.1204
     15 C11         0.5498   -3.2487   -1.4313 C.3       1 <0>        -0.1069
     16 C12        -0.0428   -0.3670   -2.5525 C.2       1 <0>         0.6075
     17 O1          0.9620    0.0055   -3.1275 O.2       1 <0>        -0.5028
     18 N3         -1.2135   -0.4346   -3.2169 N.am      1 <0>        -0.6606
     19 C13        -1.2531   -0.1804   -4.5928 C.ar      1 <0>         0.0953
     20 C14        -0.1720   -0.5192   -5.4046 C.ar      1 <0>        -0.0573
     21 C15        -0.2553   -0.2493   -6.7587 C.ar      1 <0>        -0.1302
     22 C16        -1.4057    0.3463   -7.2613 C.ar      1 <0>         0.3431
     23 N4         -2.4132    0.6546   -6.4615 N.ar      1 <0>        -0.4792
     24 C17        -2.3717    0.4071   -5.1671 C.ar      1 <0>         0.1143
     25 N5         -1.4994    0.6237   -8.6298 N.pl3     1 <0>        -0.3326
     26 C18        -2.5373    1.1991   -9.2686 C.2       1 <0>         0.2906
     27 N6         -2.2351    1.2821  -10.5388 N.2       1 <0>        -0.5390
     28 C19        -1.0212    0.7738  -10.7493 C.2       1 <0>         0.2163
     29 N7         -0.5280    0.3635   -9.6102 N.2       1 <0>        -0.3105
     30 H1          0.4472    2.1546   -0.1013 H         1 <0>         0.0881
     31 H2         -1.0469    1.7995   -1.0012 H         1 <0>         0.0796
     32 H3         -1.0757    1.8755    0.7769 H         1 <0>         0.0847
     33 H4          2.2371   -3.6528    0.6361 H         1 <0>         0.1533
     34 H5          2.6060   -5.5068    2.2111 H         1 <0>         0.1581
     35 H6         -0.9059   -4.3882    4.3649 H         1 <0>         0.1622
     36 H7          1.6095   -3.2952   -1.6823 H         1 <0>         0.0961
     37 H8          0.2761   -4.1269   -0.8465 H         1 <0>         0.0836
     38 H9         -0.0399   -3.2241   -2.3476 H         1 <0>         0.0917
     39 H10        -2.0287   -0.6593   -2.7416 H         1 <0>         0.4184
     40 H11         0.7101   -0.9812   -4.9863 H         1 <0>         0.1574
     41 H12         0.5638   -0.4982   -7.4171 H         1 <0>         0.1544
     42 H13        -3.2158    0.6684   -4.5461 H         1 <0>         0.1739
     43 H14        -3.4574    1.5328   -8.8120 H         1 <0>         0.2279
     44 H15        -0.5232    0.7150  -11.7058 H         1 <0>         0.2275
@<TRIPOS>BOND
     1    1    2 1
     2    1   30 1
     3    1   31 1
     4    1   32 1
     5    2    6 2
     6    2    3 1
     7    3    4 2
     8    3   16 1
     9    4    5 1
    10    4   15 1
    11    5    6 1
    12    5    7 1
    13    7   12 ar
    14    7    8 ar
    15    8    9 ar
    16    8   33 1
    17    9   10 ar
    18    9   34 1
    19   10   11 ar
    20   10   14 1
    21   11   12 ar
    22   11   35 1
    23   12   13 1
    24   15   36 1
    25   15   37 1
    26   15   38 1
    27   16   17 2
    28   16   18 am
    29   18   19 1
    30   18   39 1
    31   19   24 ar
    32   19   20 ar
    33   20   21 ar
    34   20   40 1
    35   21   22 ar
    36   21   41 1
    37   22   23 ar
    38   22   25 1
    39   23   24 ar
    40   24   42 1
    41   25   29 1
    42   25   26 1
    43   26   27 2
    44   26   43 1
    45   27   28 1
    46   28   29 2
    47   28   44 1
@<TRIPOS>MOLECULE
ZINC63526423
   49    53     0     0     0
SMALL
NO_CHARGES

@<TRIPOS>ATOM
      1 C1         -0.0178    1.4608    0.0101 C.3       1 <0>         0.0800
      2 N1          0.0021   -0.0041    0.0020 N.am      1 <0>        -0.5410
      3 C2          0.0076   -0.7714   -1.1496 C.ar      1 <0>         0.1776
      4 C3         -0.0003   -0.3655   -2.4849 C.ar      1 <0>        -0.1346
      5 C4          0.0084   -1.3600   -3.4503 C.ar      1 <0>        -0.0651
      6 C5          0.0231   -2.6996   -3.1189 C.ar      1 <0>        -0.1404
      7 C6          0.0311   -3.1176   -1.7925 C.ar      1 <0>        -0.0550
      8 C7          0.0243   -2.1344   -0.8267 C.ar      1 <0>        -0.1746
      9 C8          0.0333   -2.2083    0.6659 C.3       1 <0>        -0.0173
     10 C9          0.0230   -0.7647    1.1170 C.2       1 <0>         0.5521
     11 O1          0.0302   -0.3664    2.2626 O.2       1 <0>        -0.4620
     12 C10         1.2795   -2.9163    1.1831 C.3       1 <0>        -0.1927
     13 H1          1.2599   -2.8970    2.2727 H         1 <0>         0.1510
     14 C11         1.2400   -4.3520    0.7317 C.2       1 <0>         0.4080
     15 N2          2.3167   -4.9335    0.2537 N.2       1 <0>        -0.4185
     16 C12         3.4464   -4.2593    0.0315 C.2       1 <0>         0.3661
     17 N3          3.5384   -2.9484    0.2177 N.2       1 <0>        -0.5885
     18 C13         2.5382   -2.2539    0.7199 C.2       1 <0>         0.5137
     19 O2          2.6493   -1.0467    0.8147 O.2       1 <0>        -0.4290
     20 S1          4.8660   -5.1402   -0.5281 S.3       1 <0>         0.1333
     21 C14         6.1399   -3.8594   -0.6942 C.3       1 <0>        -0.0865
     22 C15         7.4237   -4.4870   -1.1728 C.ar      1 <0>        -0.0597
     23 C16         8.3432   -4.9641   -0.2570 C.ar      1 <0>        -0.1078
     24 C17         9.5211   -5.5399   -0.6945 C.ar      1 <0>        -0.0872
     25 C18         9.7814   -5.6389   -2.0484 C.ar      1 <0>        -0.1405
     26 C19         8.8616   -5.1616   -2.9663 C.ar      1 <0>         0.1020
     27 C20         7.6790   -4.5904   -2.5269 C.ar      1 <0>        -0.1323
     28 F1          9.1151   -5.2574   -4.2898 F         1 <0>        -0.1347
     29 N4          0.0784   -5.0100    0.7561 N.2       1 <0>        -0.3919
     30 C21        -1.0685   -4.4166    0.9481 C.2       1 <0>         0.3342
     31 C22        -1.2024   -2.9387    1.1931 C.3       1 <0>         0.0553
     32 C23        -1.3358   -2.6930    2.6383 C.1       1 <0>         0.1883
     33 N5         -1.4388   -2.5034    3.7536 N.1       1 <0>        -0.3566
     34 N6         -2.1891   -5.1662    0.9256 N.2       1 <0>        -0.4678
     35 H2          1.0048    1.8381    0.0023 H         1 <0>         0.0741
     36 H3         -0.5450    1.8219   -0.8730 H         1 <0>         0.0845
     37 H4         -0.5280    1.8123    0.9069 H         1 <0>         0.0876
     38 H5         -0.0130    0.6801   -2.7548 H         1 <0>         0.1415
     39 H6          0.0032   -1.0783   -4.4929 H         1 <0>         0.1350
     40 H7          0.0282   -3.4389   -3.9061 H         1 <0>         0.1332
     41 H8          0.0417   -4.1654   -1.5311 H         1 <0>         0.1292
     42 H9          5.8107   -3.1108   -1.4148 H         1 <0>         0.1216
     43 H10         6.3060   -3.3846    0.2728 H         1 <0>         0.1212
     44 H11         8.1410   -4.8864    0.8011 H         1 <0>         0.1359
     45 H12        10.2386   -5.9122    0.0217 H         1 <0>         0.1397
     46 H13        10.7022   -6.0882   -2.3900 H         1 <0>         0.1402
     47 H14         6.9587   -4.2217   -3.2421 H         1 <0>         0.1416
     48 H15        -2.1304   -6.1218    0.7696 H         1 <0>         0.3719
     49 H16        -2.0893   -2.5658    0.6807 H         1 <0>         0.1651
@<TRIPOS>BOND
     1    1    2 1
     2    1   35 1
     3    1   36 1
     4    1   37 1
     5    2   10 am
     6    2    3 1
     7    3    8 ar
     8    3    4 ar
     9    4    5 ar
    10    4   38 1
    11    5    6 ar
    12    5   39 1
    13    6    7 ar
    14    6   40 1
    15    7    8 ar
    16    7   41 1
    17    8    9 1
    18    9   31 1
    19    9   10 1
    20    9   12 1
    21   10   11 2
    22   12   13 1
    23   12   18 1
    24   12   14 1
    25   14   15 2
    26   14   29 1
    27   15   16 1
    28   16   17 2
    29   16   20 1
    30   17   18 1
    31   18   19 2
    32   20   21 1
    33   21   22 1
    34   21   42 1
    35   21   43 1
    36   22   27 ar
    37   22   23 ar
    38   23   24 ar
    39   23   44 1
    40   24   25 ar
    41   24   45 1
    42   25   26 ar
    43   25   46 1
    44   26   27 ar
    45   26   28 1
    46   27   47 1
    47   29   30 2
    48   30   31 1
    49   30   34 1
    50   31   32 1
    51   31   49 1
    52   32   33 3
    53   34   48 1
@<TRIPOS>MOLECULE
ZINC04817816
   50    52     0     0     0
SMALL
USER_CHARGES
1-[(4R,5S,6R)-6-hydroxy-4-(4-isopropylphenyl)-3,6-dimethyl-2,4,5,7-tetrahydroindazol-5-yl]ethanone
@<TRIPOS>ATOM
      1 C1         -0.5344    1.4281   -2.9721 C.3       1 <0>        -0.0935
      2 C2         -1.0865    2.7343   -2.4622 C.2       1 <0>         0.1051
      3 C3         -1.4221    3.0122   -1.1890 C.2       1 <0>        -0.2192
      4 C4         -1.8952    4.3342   -1.1424 C.2       1 <0>         0.0861
      5 N1         -1.8412    4.8284   -2.3450 N.2       1 <0>        -0.2865
      6 N2         -1.3342    3.8391   -3.2011 N.pl3     1 <0>        -0.4838
      7 H1         -1.1827    3.9344   -4.1849 H         1 <0>         0.4439
      8 C5         -2.3713    5.0042    0.1236 C.3       1 <0>        -0.0635
      9 C6         -2.6389    3.9157    1.1704 C.3       1 <0>         0.1497
     10 C7         -1.4251    2.9897    1.2756 C.3       1 <0>        -0.1035
     11 H2         -0.5933    3.5386    1.3585 H         1 <0>         0.0978
     12 C8         -1.3319    2.1138    0.0199 C.3       1 <0>         0.0519
     13 H3         -2.1537    1.3979    0.0090 H         1 <0>         0.1020
     14 C9         -0.0167    1.3781    0.0096 C.ar      1 <0>        -0.0796
     15 C10         1.1709    2.0855    0.0021 C.ar      1 <0>        -0.1078
     16 C11         2.3773    1.4107   -0.0145 C.ar      1 <0>        -0.1151
     17 C12         2.3960    0.0285   -0.0217 C.ar      1 <0>        -0.0763
     18 C13         1.2084   -0.6789   -0.0132 C.ar      1 <0>        -0.1170
     19 C14         0.0021   -0.0041    0.0020 C.ar      1 <0>        -0.1015
     20 C15         3.7112   -0.7071   -0.0382 C.3       1 <0>        -0.0581
     21 C16         4.4959   -0.3207   -1.2936 C.3       1 <0>        -0.1439
     22 C17         4.5208   -0.3325    1.2048 C.3       1 <0>        -0.1444
     23 C18        -1.5694    2.1102    2.4907 C.2       1 <0>         0.3627
     24 O1         -2.0379    1.0024    2.3821 O.2       1 <0>        -0.4356
     25 C19        -1.1291    2.6130    3.8414 C.3       1 <0>        -0.2020
     26 C20        -2.8994    4.5693    2.5290 C.3       1 <0>        -0.1938
     27 O2         -3.7847    3.1550    0.7827 O.3       1 <0>        -0.5444
     28 H4          0.5540    1.4469   -2.9157 H         1 <0>         0.0804
     29 H5         -0.9157    0.6095   -2.3617 H         1 <0>         0.0873
     30 H6         -0.8421    1.2831   -4.0077 H         1 <0>         0.0686
     31 H7         -3.2896    5.5565   -0.0756 H         1 <0>         0.0915
     32 H8         -1.6037    5.6859    0.4899 H         1 <0>         0.0958
     33 H9          1.1563    3.1654    0.0081 H         1 <0>         0.1160
     34 H10         3.3051    1.9634   -0.0208 H         1 <0>         0.1180
     35 H11         1.2231   -1.7588   -0.0188 H         1 <0>         0.1197
     36 H12        -0.9258   -0.5567    0.0083 H         1 <0>         0.1223
     37 H13         3.5266   -1.7814   -0.0414 H         1 <0>         0.0765
     38 H14         4.6805    0.7535   -1.2903 H         1 <0>         0.0558
     39 H15         5.4471   -0.8528   -1.3055 H         1 <0>         0.0576
     40 H16         3.9191   -0.5876   -2.1791 H         1 <0>         0.0552
     41 H17         4.7054    0.7418    1.2080 H         1 <0>         0.0561
     42 H18         3.9617   -0.6077    2.0991 H         1 <0>         0.0557
     43 H19         5.4720   -0.8646    1.1928 H         1 <0>         0.0577
     44 H20        -1.8941    3.0741    4.2910 H         1 <0>         0.0896
     45 H21        -0.8015    1.7722    4.4529 H         1 <0>         0.0857
     46 H22        -0.3044    3.3147    3.7167 H         1 <0>         0.0845
     47 H23        -2.0253    5.1480    2.8274 H         1 <0>         0.0754
     48 H24        -3.7639    5.2291    2.4549 H         1 <0>         0.0698
     49 H25        -3.0948    3.7965    3.2725 H         1 <0>         0.0726
     50 H26        -4.5933    3.6782    0.6961 H         1 <0>         0.3783
@<TRIPOS>BOND
     1    1    2 1
     2    1   28 1
     3    1   29 1
     4    1   30 1
     5    2    6 1
     6    2    3 2
     7    3   12 1
     8    3    4 1
     9    4    5 2
    10    4    8 1
    11    5    6 1
    12    6    7 1
    13    8    9 1
    14    8   31 1
    15    8   32 1
    16    9   10 1
    17    9   26 1
    18    9   27 1
    19   10   11 1
    20   10   12 1
    21   10   23 1
    22   12   13 1
    23   12   14 1
    24   14   19 ar
    25   14   15 ar
    26   15   16 ar
    27   15   33 1
    28   16   17 ar
    29   16   34 1
    30   17   18 ar
    31   17   20 1
    32   18   19 ar
    33   18   35 1
    34   19   36 1
    35   20   21 1
    36   20   22 1
    37   20   37 1
    38   21   38 1
    39   21   39 1
    40   21   40 1
    41   22   41 1
    42   22   42 1
    43   22   43 1
    44   23   24 2
    45   23   25 1
    46   25   44 1
    47   25   45 1
    48   25   46 1
    49   26   47 1
    50   26   48 1
    51   26   49 1
    52   27   50 1
@<TRIPOS>MOLECULE
ZINC28579304
   44    47     0     0     0
SMALL
USER_CHARGES
3-[(3aR,7aS)-3-cyano-3a,4,5,6,7,7a-hexahydrobenzothiophen-2-yl]-1-(1-naphthyl)urea
@<TRIPOS>ATOM
      1 C1         -3.8404   12.3909    5.7328 C.ar      1 <0>        -0.1159
      2 C2         -3.1992   11.2173    6.1242 C.ar      1 <0>        -0.1117
      3 C3         -3.3079   10.0795    5.3844 C.ar      1 <0>        -0.1116
      4 C4         -4.0811   10.0837    4.2128 C.ar      1 <0>        -0.0604
      5 C5         -4.7288   11.2779    3.8108 C.ar      1 <0>        -0.0371
      6 C6         -4.5936   12.4334    4.6000 C.ar      1 <0>        -0.1016
      7 C7         -5.4980   11.2853    2.6349 C.ar      1 <0>        -0.1194
      8 C8         -5.6112   10.1515    1.8894 C.ar      1 <0>        -0.0945
      9 C9         -4.9745    8.9743    2.2709 C.ar      1 <0>        -0.1175
     10 C10        -4.2109    8.9256    3.4172 C.ar      1 <0>         0.1647
     11 N1         -3.5763    7.7395    3.7909 N.am      1 <0>        -0.6824
     12 C11        -3.0930    6.9075    2.8472 C.2       1 <0>         0.7037
     13 O1         -3.2815    7.1480    1.6706 O.2       1 <0>        -0.5246
     14 N2         -2.4007    5.8088    3.2080 N.am      1 <0>        -0.6511
     15 C12        -1.9057    4.9567    2.2414 C.2       1 <0>         0.2180
     16 C13        -1.1851    3.8033    2.4375 C.2       1 <0>        -0.1872
     17 C14        -0.6996    3.0829    1.2257 C.3       1 <0>        -0.0211
     18 H1          0.3444    3.4229    1.1594 H         1 <0>         0.1086
     19 C15        -0.7395    1.5501    1.2971 C.3       1 <0>        -0.1073
     20 C16        -0.0516    1.0661    0.0063 C.3       1 <0>        -0.1189
     21 C17        -0.7517    1.5616   -1.2533 C.3       1 <0>        -0.1193
     22 C18        -0.9531    3.0923   -1.2401 C.3       1 <0>        -0.1059
     23 C19        -1.6506    3.4145    0.0363 C.3       1 <0>        -0.1168
     24 H2         -2.4793    2.7257   -0.1845 H         1 <0>         0.1207
     25 S1         -2.0221    5.1297    0.4636 S.3       1 <0>         0.0185
     26 C20        -0.9106    3.3125    3.7545 C.1       1 <0>         0.2654
     27 N3         -0.6929    2.9232    4.7992 N.1       1 <0>        -0.4338
     28 H3         -3.7385   13.2800    6.3374 H         1 <0>         0.1249
     29 H4         -2.6076   11.2101    7.0278 H         1 <0>         0.1241
     30 H5         -2.8054    9.1770    5.6997 H         1 <0>         0.1200
     31 H6         -5.0852   13.3499    4.3090 H         1 <0>         0.1303
     32 H7         -5.9989   12.1897    2.3225 H         1 <0>         0.1294
     33 H8         -6.2044   10.1661    0.9871 H         1 <0>         0.1288
     34 H9         -5.0802    8.0887    1.6619 H         1 <0>         0.1437
     35 H10        -3.4708    7.4840    4.8556 H         1 <0>         0.4328
     36 H11        -2.2302    5.5912    4.2727 H         1 <0>         0.4419
     37 H12        -0.2002    1.2107    2.1937 H         1 <0>         0.0676
     38 H13        -1.7852    1.2125    1.3484 H         1 <0>         0.0736
     39 H14         0.9848    1.4340   -0.0170 H         1 <0>         0.0666
     40 H15        -0.0509   -0.0336   -0.0186 H         1 <0>         0.0678
     41 H16        -0.1469    1.3027   -2.1349 H         1 <0>         0.0728
     42 H17        -1.7403    1.0862   -1.3345 H         1 <0>         0.0645
     43 H18         0.0259    3.5914   -1.2906 H         1 <0>         0.0716
     44 H19        -1.5614    3.3896   -2.1071 H         1 <0>         0.0779
@<TRIPOS>BOND
     1    1    6 ar
     2    1    2 ar
     3    1   28 1
     4    2    3 ar
     5    2   29 1
     6    3    4 ar
     7    3   30 1
     8    4   10 ar
     9    4    5 ar
    10    5    6 ar
    11    5    7 ar
    12    6   31 1
    13    7    8 ar
    14    7   32 1
    15    8    9 ar
    16    8   33 1
    17    9   10 ar
    18    9   34 1
    19   10   11 1
    20   11   12 am
    21   11   35 1
    22   12   13 2
    23   12   14 am
    24   14   15 1
    25   14   36 1
    26   15   25 1
    27   15   16 2
    28   16   17 1
    29   16   26 1
    30   17   18 1
    31   17   23 1
    32   17   19 1
    33   19   20 1
    34   19   37 1
    35   19   38 1
    36   20   21 1
    37   20   39 1
    38   20   40 1
    39   21   22 1
    40   21   41 1
    41   21   42 1
    42   22   23 1
    43   22   43 1
    44   22   44 1
    45   23   24 1
    46   23   25 1
    47   26   27 3
@<TRIPOS>MOLECULE
ZINC37350371
   27    29     0     0     0
SMALL
USER_CHARGES

@<TRIPOS>ATOM
      1 C1         -0.0168    1.3903    0.0097 C.ar      1 <0>        -0.0835
      2 C2          1.1699    2.0941    0.0021 C.ar      1 <0>        -0.1519
      3 C3          2.3789    1.4178   -0.0135 C.ar      1 <0>         0.1008
      4 C4          2.4030    0.0326   -0.0212 C.ar      1 <0>        -0.1494
      5 C5          1.2217   -0.6802   -0.0133 C.ar      1 <0>        -0.0660
      6 C6          0.0021   -0.0041    0.0020 C.ar      1 <0>        -0.0141
      7 C7         -1.2694   -0.7647    0.0106 C.2       1 <0>        -0.2961
      8 C8         -1.7577   -1.6419    1.0794 C.2       1 <0>         0.2201
      9 N1         -2.9193   -2.1171    0.6883 N.2       1 <0>        -0.2903
     10 O1         -3.2192   -1.5933   -0.5897 O.3       1 <0>        -0.0928
     11 C9         -2.2265   -0.7804   -0.9829 C.2       1 <0>         0.3732
     12 N2         -2.1715   -0.0847   -2.1730 N.pl3     1 <0>        -0.8051
     13 C10        -1.0736   -1.9363    2.3541 C.2       1 <0>         0.0563
     14 C11        -1.6782   -2.1477    3.5542 C.2       1 <0>        -0.1456
     15 C12        -0.6527   -2.3909    4.4879 C.2       1 <0>        -0.1549
     16 C13         0.5169   -2.3168    3.8190 C.2       1 <0>        -0.0106
     17 O2          0.2579   -2.0478    2.5296 O.3       1 <0>        -0.1392
     18 Br1         2.2347   -2.5590    4.5714 Br        1 <0>         0.0664
     19 F1          3.5383    2.1114   -0.0217 F         1 <0>        -0.1384
     20 H1         -0.9588    1.9184    0.0260 H         1 <0>         0.1318
     21 H2          1.1563    3.1740    0.0081 H         1 <0>         0.1376
     22 H3          3.3480   -0.4901   -0.0337 H         1 <0>         0.1376
     23 H4          1.2414   -1.7600   -0.0196 H         1 <0>         0.1313
     24 H5         -1.4074    0.4795   -2.3701 H         1 <0>         0.4292
     25 H6         -2.8968   -0.1597   -2.8127 H         1 <0>         0.4164
     26 H7         -2.7397   -2.1321    3.7525 H         1 <0>         0.1676
     27 H8         -0.7784   -2.5971    5.5406 H         1 <0>         0.1696
@<TRIPOS>BOND
     1    1    6 ar
     2    1    2 ar
     3    1   20 1
     4    2    3 ar
     5    2   21 1
     6    3    4 ar
     7    3   19 1
     8    4    5 ar
     9    4   22 1
    10    5    6 ar
    11    5   23 1
    12    6    7 1
    13    7   11 2
    14    7    8 1
    15    8    9 2
    16    8   13 1
    17    9   10 1
    18   10   11 1
    19   11   12 1
    20   12   24 1
    21   12   25 1
    22   13   17 1
    23   13   14 2
    24   14   15 1
    25   14   26 1
    26   15   16 2
    27   15   27 1
    28   16   17 1
    29   16   18 1
@<TRIPOS>MOLECULE
ZINC04543346
   43    46     0     0     0
SMALL
USER_CHARGES

@<TRIPOS>ATOM
      1 C1         -0.0187    1.5258    0.0104 C.3       1 <0>        -0.1472
      2 C2          0.0021   -0.0041    0.0020 C.3       1 <0>        -0.0860
      3 H1         -1.0198   -0.3832    0.0097 H         1 <0>         0.0744
      4 C3          0.7240   -0.5005   -1.2540 C.3       1 <0>        -0.1157
      5 C4          0.5374   -2.0122   -1.3983 C.3       1 <0>        -0.0585
      6 C5          0.9388   -2.6815   -0.0914 C.2       1 <0>        -0.0200
      7 C6          1.0221   -1.9766    1.0584 C.2       1 <0>        -0.2219
      8 S1          1.5145   -3.1599    2.2819 S.3       1 <0>         0.1939
      9 C7          1.6035   -4.5176    1.3326 C.2       1 <0>         0.0901
     10 C8          1.2611   -4.0924    0.0408 C.2       1 <0>        -0.2816
     11 C9          1.2690   -5.1033   -1.0415 C.2       1 <0>         0.5983
     12 O1          1.1599   -4.7816   -2.2105 O.2       1 <0>        -0.5354
     13 N1          1.4026   -6.3965   -0.6776 N.am      1 <0>        -0.7250
     14 C10         1.3783   -6.8490    0.7091 C.3       1 <0>         0.4446
     15 H2          1.9755   -7.7565    0.7987 H         1 <0>         0.1159
     16 N2          1.9203   -5.8233    1.6181 N.pl3     1 <0>        -0.6930
     17 C11        -0.0438   -7.1539    1.1036 C.ar      1 <0>        -0.1685
     18 C12        -0.4756   -6.8933    2.3899 C.ar      1 <0>        -0.0567
     19 C13        -1.7799   -7.1732    2.7525 C.ar      1 <0>        -0.1588
     20 C14        -2.6558   -7.7141    1.8291 C.ar      1 <0>        -0.0698
     21 C15        -2.2293   -7.9759    0.5418 C.ar      1 <0>        -0.2101
     22 C16        -0.9221   -7.6910    0.1739 C.ar      1 <0>         0.1546
     23 O2         -0.5015   -7.9425   -1.0937 O.3       1 <0>        -0.3108
     24 C17        -1.4601   -8.4959   -1.9975 C.3       1 <0>         0.0263
     25 C18         0.7499   -0.5153    1.2421 C.3       1 <0>        -0.0236
     26 H3          1.0039    1.9031    0.0027 H         1 <0>         0.0567
     27 H4         -0.5459    1.8868   -0.8726 H         1 <0>         0.0580
     28 H5         -0.5289    1.8773    0.9072 H         1 <0>         0.0565
     29 H6          0.3122    0.0004   -2.1301 H         1 <0>         0.0692
     30 H7          1.7870   -0.2728   -1.1745 H         1 <0>         0.0655
     31 H8         -0.5078   -2.2324   -1.6157 H         1 <0>         0.0748
     32 H9          1.1671   -2.3827   -2.2071 H         1 <0>         0.0881
     33 H10         1.5208   -7.0600   -1.3753 H         1 <0>         0.4103
     34 H11         2.4730   -6.0585    2.3797 H         1 <0>         0.4232
     35 H12         0.2066   -6.4710    3.1129 H         1 <0>         0.1281
     36 H13        -2.1153   -6.9695    3.7587 H         1 <0>         0.1265
     37 H14        -3.6742   -7.9322    2.1149 H         1 <0>         0.1268
     38 H15        -2.9137   -8.3983   -0.1789 H         1 <0>         0.1304
     39 H16        -1.8141   -9.4517   -1.6113 H         1 <0>         0.0564
     40 H17        -2.3018   -7.8107   -2.0987 H         1 <0>         0.0559
     41 H18        -0.9956   -8.6473   -2.9719 H         1 <0>         0.1028
     42 H19         1.6924    0.0215    1.3499 H         1 <0>         0.0786
     43 H20         0.1362   -0.3627    2.1299 H         1 <0>         0.0767
@<TRIPOS>BOND
     1    1    2 1
     2    1   26 1
     3    1   27 1
     4    1   28 1
     5    2    3 1
     6    2   25 1
     7    2    4 1
     8    4    5 1
     9    4   29 1
    10    4   30 1
    11    5    6 1
    12    5   31 1
    13    5   32 1
    14    6   10 1
    15    6    7 2
    16    7    8 1
    17    7   25 1
    18    8    9 1
    19    9   16 1
    20    9   10 2
    21   10   11 1
    22   11   12 2
    23   11   13 am
    24   13   14 1
    25   13   33 1
    26   14   15 1
    27   14   16 1
    28   14   17 1
    29   16   34 1
    30   17   22 ar
    31   17   18 ar
    32   18   19 ar
    33   18   35 1
    34   19   20 ar
    35   19   36 1
    36   20   21 ar
    37   20   37 1
    38   21   22 ar
    39   21   38 1
    40   22   23 1
    41   23   24 1
    42   24   39 1
    43   24   40 1
    44   24   41 1
    45   25   42 1
    46   25   43 1
@<TRIPOS>MOLECULE
ZINC62496595
   48    50     0     0     0
SMALL
USER_CHARGES

@<TRIPOS>ATOM
      1 C1          0.1687   -6.6839   -0.8041 C.3       1 <0>        -0.1172
      2 C2          0.5180   -6.0983    0.5399 C.ar      1 <0>        -0.0835
      3 C3          1.2627   -6.8348    1.4423 C.ar      1 <0>        -0.1135
      4 C4          1.5831   -6.2978    2.6749 C.ar      1 <0>        -0.1164
      5 C5          1.1593   -5.0239    3.0052 C.ar      1 <0>        -0.1043
      6 C6          0.4156   -4.2873    2.1027 C.ar      1 <0>        -0.0845
      7 C7          0.0987   -4.8228    0.8681 C.ar      1 <0>        -0.0757
      8 C8         -0.7077   -4.0177   -0.1181 C.3       1 <0>        -0.1242
      9 C9         -0.0468   -2.8990    2.4629 C.3       1 <0>        -0.0999
     10 C10        -1.5107   -2.9476    2.9051 C.3       1 <0>         0.0874
     11 H1         -2.1079   -3.4280    2.1301 H         1 <0>         0.1459
     12 C11        -1.6222   -3.7362    4.1854 C.2       1 <0>         0.4963
     13 O1         -1.8575   -4.9257    4.1496 O.2       1 <0>        -0.4951
     14 N1         -1.4586   -3.1134    5.3715 N.am      1 <0>        -0.5412
     15 C12        -1.3130   -1.7171    5.3971 C.ar      1 <0>         0.0390
     16 C13        -0.9182   -1.0728    6.5587 C.ar      1 <0>        -0.0773
     17 C14        -0.7654    0.3008    6.5678 C.ar      1 <0>        -0.1883
     18 C15        -1.0064    1.0364    5.4145 C.ar      1 <0>         0.2268
     19 C16        -1.4071    0.3941    4.2501 C.ar      1 <0>        -0.1885
     20 C17        -1.5660   -0.9806    4.2417 C.ar      1 <0>         0.1278
     21 O2         -1.9880   -1.6173    3.1172 O.3       1 <0>        -0.2981
     22 N2         -0.8459    2.4258    5.4260 N.pl3     1 <0>        -0.8738
     23 C18        -1.4337   -3.8846    6.6168 C.3       1 <0>         0.1365
     24 C19        -2.7684   -4.6114    6.7933 C.3       1 <0>        -0.1707
     25 C20        -0.2987   -4.9090    6.5597 C.3       1 <0>        -0.1703
     26 H2          0.9516   -6.4387   -1.5218 H         1 <0>         0.0704
     27 H3          0.0818   -7.7669   -0.7170 H         1 <0>         0.0664
     28 H4         -0.7799   -6.2695   -1.1455 H         1 <0>         0.0694
     29 H5          1.5938   -7.8299    1.1843 H         1 <0>         0.1213
     30 H6          2.1642   -6.8734    3.3802 H         1 <0>         0.1207
     31 H7          1.4090   -4.6046    3.9686 H         1 <0>         0.1139
     32 H8         -1.7697   -4.1443    0.0918 H         1 <0>         0.0717
     33 H9         -0.4429   -2.9640   -0.0295 H         1 <0>         0.0702
     34 H10        -0.4936   -4.3623   -1.1298 H         1 <0>         0.0718
     35 H11         0.5659   -2.5117    3.2770 H         1 <0>         0.0795
     36 H12         0.0489   -2.2473    1.5944 H         1 <0>         0.1015
     37 H13        -0.7298   -1.6435    7.4560 H         1 <0>         0.1335
     38 H14        -0.4584    0.8030    7.4733 H         1 <0>         0.1293
     39 H15        -1.5946    0.9661    3.3535 H         1 <0>         0.1366
     40 H16        -0.5664    2.8751    6.2389 H         1 <0>         0.4013
     41 H17        -1.0140    2.9402    4.6209 H         1 <0>         0.4004
     42 H18        -1.2729   -3.2107    7.4583 H         1 <0>         0.0949
     43 H19        -2.9292   -5.2853    5.9518 H         1 <0>         0.0803
     44 H20        -2.7499   -5.1852    7.7199 H         1 <0>         0.0690
     45 H21        -3.5770   -3.8816    6.8340 H         1 <0>         0.0559
     46 H22         0.6521   -4.3912    6.4340 H         1 <0>         0.0557
     47 H23        -0.2802   -5.4828    7.4863 H         1 <0>         0.0710
     48 H24        -0.4595   -5.5829    5.7182 H         1 <0>         0.0783
@<TRIPOS>BOND
     1    1    2 1
     2    1   26 1
     3    1   27 1
     4    1   28 1
     5    2    7 ar
     6    2    3 ar
     7    3    4 ar
     8    3   29 1
     9    4    5 ar
    10    4   30 1
    11    5    6 ar
    12    5   31 1
    13    6    7 ar
    14    6    9 1
    15    7    8 1
    16    8   32 1
    17    8   33 1
    18    8   34 1
    19    9   10 1
    20    9   35 1
    21    9   36 1
    22   10   11 1
    23   10   21 1
    24   10   12 1
    25   12   13 2
    26   12   14 am
    27   14   15 1
    28   14   23 1
    29   15   20 ar
    30   15   16 ar
    31   16   17 ar
    32   16   37 1
    33   17   18 ar
    34   17   38 1
    35   18   19 ar
    36   18   22 1
    37   19   20 ar
    38   19   39 1
    39   20   21 1
    40   22   40 1
    41   22   41 1
    42   23   24 1
    43   23   25 1
    44   23   42 1
    45   24   43 1
    46   24   44 1
    47   24   45 1
    48   25   46 1
    49   25   47 1
    50   25   48 1
@<TRIPOS>MOLECULE
ZINC19910765
   59    62     0     0     0
SMALL
USER_CHARGES
1-[(1R,3R,5S,8S,9R,10R,11R,13S,14R,17R)-1,3,11-trihydroxy-10,13-dimethyl-2,3,4,5,6,7,8,9,11,12,14,15,16,17-tetradecahydro-1H-cyclopenta[a]phenanthren-17-yl]ethanone
@<TRIPOS>ATOM
      1 C1         -1.4031    8.3217   -2.5618 C.3       1 <0>        -0.2057
      2 C2         -1.9549    7.1485   -1.7937 C.2       1 <0>         0.3617
      3 O1         -1.8856    7.1295   -0.5883 O.2       1 <0>        -0.4295
      4 C3         -2.5899    6.0051   -2.5260 C.3       1 <0>        -0.1269
      5 H1         -3.0377    6.4877   -3.4072 H         1 <0>         0.0836
      6 C4         -3.6214    5.2933   -1.6278 C.3       1 <0>        -0.1189
      7 C5         -3.4588    3.7877   -1.9140 C.3       1 <0>        -0.1089
      8 C6         -1.9692    3.6221   -2.3135 C.3       1 <0>        -0.0671
      9 H2         -1.7395    2.7915   -2.9972 H         1 <0>         0.0700
     10 C7         -1.6055    4.9399   -2.9997 C.3       1 <0>        -0.0232
     11 C8         -0.1508    5.3002   -2.9586 C.3       1 <0>        -0.1025
     12 C9          0.6182    4.9411   -1.6979 C.3       1 <0>         0.1223
     13 H3          1.6986    5.0370   -1.8809 H         1 <0>         0.0346
     14 C10         0.3258    3.5162   -1.2516 C.3       1 <0>        -0.0840
     15 H4          0.6566    2.8433   -2.0564 H         1 <0>         0.0600
     16 C11        -1.1678    3.3122   -1.0608 C.3       1 <0>        -0.0704
     17 H5         -1.3208    2.2388   -0.8751 H         1 <0>         0.0829
     18 C12        -1.6810    4.0541    0.1654 C.3       1 <0>        -0.1328
     19 C13        -0.9540    3.5091    1.4023 C.3       1 <0>        -0.1147
     20 C14         0.5443    3.7476    1.2582 C.3       1 <0>        -0.0547
     21 H6          0.7017    4.8302    1.1430 H         1 <0>         0.0585
     22 C15         1.1186    3.1259   -0.0026 C.3       1 <0>        -0.0312
     23 C16         1.2011    1.6039    0.1108 C.3       1 <0>         0.1389
     24 H7          1.6411    1.2064   -0.8157 H         1 <0>         0.0345
     25 C17         2.0105    1.1920    1.3387 C.3       1 <0>        -0.1437
     26 C18         1.3996    1.7766    2.6072 C.3       1 <0>         0.1288
     27 H8          2.0191    1.5123    3.4769 H         1 <0>         0.0348
     28 C19         1.2767    3.2898    2.5151 C.3       1 <0>        -0.1470
     29 O2          0.1287    1.1820    2.8687 O.3       1 <0>        -0.5807
     30 O3         -0.0870    1.0007    0.1779 O.3       1 <0>        -0.5687
     31 C20         2.5674    3.6386   -0.1695 C.3       1 <0>        -0.1625
     32 O4          0.3902    5.8925   -0.6651 O.3       1 <0>        -0.5818
     33 C21        -1.9285    4.7249   -4.5094 C.3       1 <0>        -0.1543
     34 H9         -1.5569    8.1598   -3.6389 H         1 <0>         0.0733
     35 H10        -0.3272    8.4214   -2.3559 H         1 <0>         0.0915
     36 H11        -1.9225    9.2403   -2.2513 H         1 <0>         0.0856
     37 H12        -3.4105    5.5242   -0.5732 H         1 <0>         0.0902
     38 H13        -4.6329    5.6414   -1.8841 H         1 <0>         0.0604
     39 H14        -3.7054    3.2137   -1.0086 H         1 <0>         0.0736
     40 H15        -4.1358    3.4943   -2.7299 H         1 <0>         0.0599
     41 H16         0.3763    4.7914   -3.7791 H         1 <0>         0.0754
     42 H17        -0.0393    6.3888   -3.0706 H         1 <0>         0.0729
     43 H18        -1.4792    5.1297    0.0543 H         1 <0>         0.1036
     44 H19        -2.7646    3.8927    0.2648 H         1 <0>         0.0548
     45 H20        -1.3223    4.0252    2.3011 H         1 <0>         0.0431
     46 H21        -1.1460    2.4299    1.4946 H         1 <0>         0.0976
     47 H22         2.0192    0.0951    1.4210 H         1 <0>         0.0703
     48 H23         3.0421    1.5604    1.2383 H         1 <0>         0.0802
     49 H24         2.2931    3.7105    2.5209 H         1 <0>         0.0645
     50 H25         0.7309    3.6374    3.4047 H         1 <0>         0.0665
     51 H26        -0.4520    1.4908    3.7504 H         1 <0>         0.3983
     52 H27        -0.1788   -0.0922    0.2619 H         1 <0>         0.3952
     53 H28         3.1566    3.3683    0.7192 H         1 <0>         0.0623
     54 H29         2.5582    4.7325   -0.2846 H         1 <0>         0.0630
     55 H30         3.0182    3.1797   -1.0618 H         1 <0>         0.0579
     56 H31         0.8789    5.7705    0.3128 H         1 <0>         0.3908
     57 H32        -1.2523    3.9629   -4.9241 H         1 <0>         0.0550
     58 H33        -1.7910    5.6717   -5.0522 H         1 <0>         0.0538
     59 H34        -2.9702    4.3884   -4.6172 H         1 <0>         0.0585
@<TRIPOS>BOND
     1    1    2 1
     2    1   34 1
     3    1   35 1
     4    1   36 1
     5    2    3 2
     6    2    4 1
     7    4    5 1
     8    4   10 1
     9    4    6 1
    10    6    7 1
    11    6   37 1
    12    6   38 1
    13    7    8 1
    14    7   39 1
    15    7   40 1
    16    8    9 1
    17    8   16 1
    18    8   10 1
    19   10   11 1
    20   10   33 1
    21   11   12 1
    22   11   41 1
    23   11   42 1
    24   12   13 1
    25   12   14 1
    26   12   32 1
    27   14   15 1
    28   14   22 1
    29   14   16 1
    30   16   17 1
    31   16   18 1
    32   18   19 1
    33   18   43 1
    34   18   44 1
    35   19   20 1
    36   19   45 1
    37   19   46 1
    38   20   21 1
    39   20   28 1
    40   20   22 1
    41   22   23 1
    42   22   31 1
    43   23   24 1
    44   23   25 1
    45   23   30 1
    46   25   26 1
    47   25   47 1
    48   25   48 1
    49   26   27 1
    50   26   28 1
    51   26   29 1
    52   28   49 1
    53   28   50 1
    54   29   51 1
    55   30   52 1
    56   31   53 1
    57   31   54 1
    58   31   55 1
    59   32   56 1
    60   33   57 1
    61   33   58 1
    62   33   59 1
@<TRIPOS>MOLECULE
ZINC37274105
   35    37     0     0     0
SMALL
USER_CHARGES

@<TRIPOS>ATOM
      1 C1         -0.0190    1.3305   -0.0063 C.ar      1 <0>        -0.1467
      2 C2          1.1650    2.0555   -0.0176 C.ar      1 <0>        -0.0980
      3 C3          2.3828    1.4119   -0.0274 C.ar      1 <0>        -0.1277
      4 C4          2.4296    0.0215   -0.0256 C.ar      1 <0>         0.1080
      5 C5          1.2272   -0.7085   -0.0137 C.ar      1 <0>        -0.1070
      6 C6          0.0038   -0.0356   -0.0044 C.ar      1 <0>        -0.0706
      7 C7          1.6117   -2.1220   -0.0149 C.2       1 <0>        -0.1965
      8 C8          2.9534   -2.1636   -0.0268 C.2       1 <0>         0.0552
      9 N1          3.4595   -0.8924   -0.0333 N.pl3     1 <0>        -0.4721
     10 C9          4.8848   -0.5540   -0.0461 C.3       1 <0>         0.0954
     11 C10         5.3572   -0.3156    1.3650 C.2       1 <0>         0.4922
     12 O1          4.5797   -0.4183    2.2903 O.2       1 <0>        -0.4965
     13 N2          6.6436    0.0116    1.5987 N.am      1 <0>        -0.6665
     14 C11         7.0617    0.3255    2.8994 C.ar      1 <0>         0.1110
     15 C12         6.4972   -0.3278    3.9867 C.ar      1 <0>        -0.0620
     16 C13         6.9087   -0.0189    5.2678 C.ar      1 <0>        -0.1642
     17 C14         7.8879    0.9455    5.4695 C.ar      1 <0>         0.2139
     18 C15         8.4528    1.5992    4.3824 C.ar      1 <0>        -0.1556
     19 C16         8.0450    1.2860    3.1001 C.ar      1 <0>        -0.0662
     20 Br1         8.8194    2.1704    1.6189 Br        1 <0>        -0.0437
     21 N3          8.3044    1.2586    6.7677 N.pl3     1 <0>        -0.8737
     22 H1         -0.9655    1.8505    0.0055 H         1 <0>         0.1222
     23 H2          1.1308    3.1349   -0.0190 H         1 <0>         0.1241
     24 H3          3.2983    1.9848   -0.0368 H         1 <0>         0.1138
     25 H4         -0.9212   -0.5930    0.0047 H         1 <0>         0.1221
     26 H5          0.9427   -2.9698   -0.0073 H         1 <0>         0.1483
     27 H6          3.5457   -3.0667   -0.0310 H         1 <0>         0.1676
     28 H7          5.4497   -1.3768   -0.4842 H         1 <0>         0.1248
     29 H8          5.0388    0.3482   -0.6381 H         1 <0>         0.1198
     30 H9          7.2800    0.0300    0.8670 H         1 <0>         0.4115
     31 H10         5.7356   -1.0775    3.8303 H         1 <0>         0.1473
     32 H11         6.4691   -0.5271    6.1134 H         1 <0>         0.1318
     33 H12         9.2138    2.3494    4.5391 H         1 <0>         0.1355
     34 H13         7.9095    0.8022    7.5271 H         1 <0>         0.4020
     35 H14         8.9881    1.9321    6.9086 H         1 <0>         0.4008
@<TRIPOS>BOND
     1    1    6 ar
     2    1    2 ar
     3    1   22 1
     4    2    3 ar
     5    2   23 1
     6    3    4 ar
     7    3   24 1
     8    4    9 1
     9    4    5 ar
    10    5    6 ar
    11    5    7 1
    12    6   25 1
    13    7    8 2
    14    7   26 1
    15    8    9 1
    16    8   27 1
    17    9   10 1
    18   10   11 1
    19   10   28 1
    20   10   29 1
    21   11   12 2
    22   11   13 am
    23   13   14 1
    24   13   30 1
    25   14   19 ar
    26   14   15 ar
    27   15   16 ar
    28   15   31 1
    29   16   17 ar
    30   16   32 1
    31   17   18 ar
    32   17   21 1
    33   18   19 ar
    34   18   33 1
    35   19   20 1
    36   21   34 1
    37   21   35 1
@<TRIPOS>MOLECULE
ZINC40333893
   35    37     0     0     0
SMALL
USER_CHARGES

@<TRIPOS>ATOM
      1 C1         -0.0291    1.4605    0.0113 C.3       1 <0>         0.0694
      2 N1          0.0025   -0.0041    0.0020 N.am      1 <0>        -0.6133
      3 C2          0.1473   -0.7416    1.2595 C.3       1 <0>         0.2020
      4 C3         -1.2161   -1.0259    1.8350 C.2       1 <0>        -0.1563
      5 C4         -2.0195   -2.0988    1.6356 C.2       1 <0>        -0.1266
      6 C5         -3.2444   -2.1477    2.2754 C.2       1 <0>        -0.1367
      7 C6         -3.6049   -1.1197    3.0837 C.2       1 <0>        -0.1185
      8 S1         -2.1882   -0.0402    2.9622 S.3       1 <0>         0.0823
      9 Cl1        -5.0626   -0.9111    4.0031 Cl        1 <0>         0.0153
     10 C7         -0.1016   -0.6730   -1.1634 C.2       1 <0>         0.5945
     11 O1         -0.1772   -1.8874   -1.1632 O.2       1 <0>        -0.5299
     12 C8         -0.1239    0.0641   -2.4340 C.2       1 <0>        -0.2124
     13 C9          0.5597    1.2066   -2.7264 C.2       1 <0>         0.0888
     14 N2          0.2883    1.5910   -3.9980 N.pl3     1 <0>        -0.5813
     15 H1          0.6595    2.3760   -4.4302 H         1 <0>         0.4196
     16 C10        -0.5901    0.7074   -4.5905 C.ar      1 <0>         0.1372
     17 C11        -0.8854   -0.2900   -3.6468 C.ar      1 <0>        -0.1150
     18 C12        -1.7527   -1.3293   -3.9740 C.ar      1 <0>        -0.0193
     19 C13        -2.3158   -1.3803   -5.2186 C.ar      1 <0>        -0.1998
     20 C14        -2.0268   -0.3980   -6.1633 C.ar      1 <0>         0.2390
     21 C15        -1.1724    0.6461   -5.8516 C.ar      1 <0>        -0.2214
     22 N3         -2.6094   -0.4629   -7.4324 N.pl3     1 <0>        -0.8764
     23 H2          0.9904    1.8461   -0.0057 H         1 <0>         0.0603
     24 H3         -0.5673    1.8179   -0.8666 H         1 <0>         0.0826
     25 H4         -0.5337    1.8074    0.9130 H         1 <0>         0.0704
     26 H5          0.6657   -1.6819    1.0716 H         1 <0>         0.1116
     27 H6          0.7229   -0.1445    1.9667 H         1 <0>         0.0967
     28 H7         -1.7079   -2.9036    0.9864 H         1 <0>         0.1466
     29 H8         -3.9039   -2.9911    2.1335 H         1 <0>         0.1421
     30 H9          1.2182    1.7276   -2.0471 H         1 <0>         0.1781
     31 H10        -1.9798   -2.0938   -3.2458 H         1 <0>         0.1282
     32 H11        -2.9883   -2.1868   -5.4710 H         1 <0>         0.1243
     33 H12        -0.9510    1.4039   -6.5885 H         1 <0>         0.1197
     34 H13        -3.2125   -1.1899   -7.6527 H         1 <0>         0.4003
     35 H14        -2.4105    0.2192   -8.0928 H         1 <0>         0.3978
@<TRIPOS>BOND
     1    1    2 1
     2    1   23 1
     3    1   24 1
     4    1   25 1
     5    2    3 1
     6    2   10 am
     7    3    4 1
     8    3   26 1
     9    3   27 1
    10    4    8 1
    11    4    5 2
    12    5    6 1
    13    5   28 1
    14    6    7 2
    15    6   29 1
    16    7    8 1
    17    7    9 1
    18   10   11 2
    19   10   12 1
    20   12   17 1
    21   12   13 2
    22   13   14 1
    23   13   30 1
    24   14   15 1
    25   14   16 1
    26   16   21 ar
    27   16   17 ar
    28   17   18 ar
    29   18   19 ar
    30   18   31 1
    31   19   20 ar
    32   19   32 1
    33   20   21 ar
    34   20   22 1
    35   21   33 1
    36   22   34 1
    37   22   35 1
@<TRIPOS>MOLECULE
ZINC52857628
   31    32     0     0     0
SMALL
USER_CHARGES

@<TRIPOS>ATOM
      1 C1         -0.0277    1.3311   -0.2046 C.ar      1 <0>        -0.0367
      2 C2          1.1283    2.0851   -0.1806 C.ar      1 <0>        -0.1851
      3 C3          2.3568    1.4695    0.0191 C.ar      1 <0>         0.2561
      4 C4          2.4164    0.0778    0.1964 C.ar      1 <0>        -0.1691
      5 C5          1.2376   -0.6723    0.1696 C.ar      1 <0>        -0.0197
      6 C6          0.0268   -0.0432   -0.0301 C.ar      1 <0>        -0.0865
      7 Cl1        -1.4365   -0.9767   -0.0625 Cl        1 <0>        -0.0617
      8 C7          3.7130   -0.5871    0.4086 C.2       1 <0>         0.3974
      9 S1          4.2858   -0.8582    1.9990 S.2       1 <0>        -0.5229
     10 N1          4.4488   -0.9824   -0.6492 N.pl3     1 <0>        -0.7555
     11 N2          3.5221    2.2272    0.0431 N.pl3     1 <0>        -0.7209
     12 C8          3.4469    3.6888   -0.0214 C.3       1 <0>         0.1447
     13 H1          2.5550    4.0349    0.5010 H         1 <0>         0.1119
     14 C9          3.3973    4.1420   -1.4899 C.3       1 <0>        -0.1465
     15 C10         3.6402    5.6679   -1.5798 C.3       1 <0>        -0.5762
     16 S2          4.6789    5.9995   -0.0987 S.o2      1 <0>         2.3785
     17 O1          5.9902    6.3466   -0.5220 O.2       1 <0>        -0.9288
     18 O2          3.9731    6.8694    0.7756 O.2       1 <0>        -0.9253
     19 C11         4.7136    4.3095    0.6341 C.3       1 <0>        -0.5952
     20 H2         -0.9811    1.8154   -0.3559 H         1 <0>         0.1421
     21 H3          1.0773    3.1551   -0.3178 H         1 <0>         0.1416
     22 H4          1.2749   -1.7431    0.3051 H         1 <0>         0.1401
     23 H5          4.1243   -0.8288   -1.5503 H         1 <0>         0.4061
     24 H6          5.3029   -1.4204   -0.5094 H         1 <0>         0.4238
     25 H7          4.3850    1.7881    0.1026 H         1 <0>         0.4055
     26 H8          4.1679    3.6189   -2.0562 H         1 <0>         0.0921
     27 H9          2.4190    3.9060   -1.9086 H         1 <0>         0.1027
     28 H10         4.1782    5.9205   -2.4935 H         1 <0>         0.1463
     29 H11         2.6983    6.2133   -1.5213 H         1 <0>         0.1444
     30 H12         4.6170    4.3485    1.7191 H         1 <0>         0.1521
     31 H13         5.6140    3.7704    0.3397 H         1 <0>         0.1446
@<TRIPOS>BOND
     1    1    6 ar
     2    1    2 ar
     3    1   20 1
     4    2    3 ar
     5    2   21 1
     6    3    4 ar
     7    3   11 1
     8    4    5 ar
     9    4    8 1
    10    5    6 ar
    11    5   22 1
    12    6    7 1
    13    8    9 2
    14    8   10 1
    15   10   23 1
    16   10   24 1
    17   11   12 1
    18   11   25 1
    19   12   13 1
    20   12   19 1
    21   12   14 1
    22   14   15 1
    23   14   26 1
    24   14   27 1
    25   15   16 1
    26   15   28 1
    27   15   29 1
    28   16   17 2
    29   16   18 2
    30   16   19 1
    31   19   30 1
    32   19   31 1
@<TRIPOS>MOLECULE
ZINC63209158
   32    33     0     0     0
SMALL
USER_CHARGES

@<TRIPOS>ATOM
      1 C1          0.2722    1.6189    0.4191 C.3       1 <0>        -0.1177
      2 C2          0.2093    0.1183    0.2954 C.ar      1 <0>        -0.1148
      3 C3          0.1747   -0.4710   -0.9549 C.ar      1 <0>        -0.0348
      4 C4          0.1175   -1.8468   -1.0695 C.ar      1 <0>        -0.1672
      5 C5          0.0949   -2.6355    0.0685 C.ar      1 <0>         0.1959
      6 C6          0.1296   -2.0444    1.3199 C.ar      1 <0>        -0.7121
      7 C7          0.1921   -0.6681    1.4320 C.ar      1 <0>         0.0032
      8 S1          0.1003   -3.0463    2.7690 S.o2      1 <0>         2.6889
      9 O1          1.0836   -4.0555    2.5849 O.2       1 <0>        -0.9338
     10 O2          0.1190   -2.1576    3.8776 O.2       1 <0>        -0.9480
     11 N1         -1.3661   -3.8149    2.8032 N.pl3     1 <0>        -1.0501
     12 C8         -1.6826   -4.7630    1.8228 C.ar      1 <0>         0.0709
     13 C9         -0.9727   -5.9521    1.7509 C.ar      1 <0>        -0.0904
     14 C10        -1.2878   -6.8882    0.7809 C.ar      1 <0>         0.0543
     15 C11        -2.3108   -6.6402   -0.1183 C.ar      1 <0>        -0.0924
     16 C12        -3.0223   -5.4562   -0.0523 C.ar      1 <0>        -0.1635
     17 C13        -2.7163   -4.5165    0.9199 C.ar      1 <0>         0.2158
     18 N2         -3.4409   -3.3188    0.9917 N.pl3     1 <0>        -0.8700
     19 F1         -0.5953   -8.0461    0.7115 F         1 <0>        -0.1386
     20 F2          0.0385   -3.9808   -0.0424 F         1 <0>        -0.1136
     21 H1          1.3140    1.9388    0.4354 H         1 <0>         0.0776
     22 H2         -0.2346    2.0751   -0.4313 H         1 <0>         0.0726
     23 H3         -0.2174    1.9282    1.3425 H         1 <0>         0.0735
     24 H4          0.1920    0.1444   -1.8423 H         1 <0>         0.1421
     25 H5          0.0901   -2.3068   -2.0463 H         1 <0>         0.1460
     26 H6          0.2237   -0.2070    2.4081 H         1 <0>         0.1527
     27 H7         -2.0058   -3.6083    3.5025 H         1 <0>         0.4247
     28 H8         -0.1741   -6.1476    2.4512 H         1 <0>         0.1501
     29 H9         -2.5535   -7.3730   -0.8736 H         1 <0>         0.1399
     30 H10        -3.8195   -5.2655   -0.7555 H         1 <0>         0.1369
     31 H11        -3.2234   -2.6603    1.6700 H         1 <0>         0.3981
     32 H12        -4.1597   -3.1483    0.3631 H         1 <0>         0.4035
@<TRIPOS>BOND
     1    1    2 1
     2    1   21 1
     3    1   22 1
     4    1   23 1
     5    2    7 ar
     6    2    3 ar
     7    3    4 ar
     8    3   24 1
     9    4    5 ar
    10    4   25 1
    11    5    6 ar
    12    5   20 1
    13    6    7 ar
    14    6    8 1
    15    7   26 1
    16    8    9 2
    17    8   10 2
    18    8   11 1
    19   11   12 1
    20   11   27 1
    21   12   17 ar
    22   12   13 ar
    23   13   14 ar
    24   13   28 1
    25   14   15 ar
    26   14   19 1
    27   15   16 ar
    28   15   29 1
    29   16   17 ar
    30   16   30 1
    31   17   18 1
    32   18   31 1
    33   18   32 1
@<TRIPOS>MOLECULE
ZINC21971174
   37    39     0     0     0
SMALL
USER_CHARGES
N'-(5,6,7,8-tetrahydro-4H-cyclohepta[d]thiophene-2-carbonyl)furan-3-carbohydrazide
@<TRIPOS>ATOM
      1 C1         -9.6663    1.6735   -0.1429 C.2       1 <0>        -0.1620
      2 C2        -10.7308    0.8575   -0.1808 C.2       1 <0>        -0.0330
      3 O1        -10.3079   -0.4161   -0.2018 O.3       1 <0>        -0.1696
      4 C3         -8.9728   -0.4758   -0.1841 C.2       1 <0>         0.0280
      5 C4         -8.4855    0.7976   -0.1410 C.2       1 <0>        -0.2299
      6 C5         -7.0708    1.2094   -0.1061 C.2       1 <0>         0.5932
      7 O2         -6.7819    2.3903   -0.0746 O.2       1 <0>        -0.5377
      8 N1         -6.0974    0.2773   -0.1092 N.am      1 <0>        -0.5277
      9 N2         -4.7526    0.6687   -0.0761 N.am      1 <0>        -0.5264
     10 C6         -3.7791   -0.2634   -0.0792 C.2       1 <0>         0.6128
     11 O3         -4.0683   -1.4451   -0.1107 O.2       1 <0>        -0.5340
     12 C7         -2.3721    0.1462   -0.0445 C.2       1 <0>        -0.2449
     13 C8         -1.2340   -0.6399   -0.0414 C.2       1 <0>        -0.0508
     14 C9          0.0021   -0.0041    0.0020 C.2       1 <0>        -0.1413
     15 C10        -0.0163    1.3481    0.0095 C.2       1 <0>        -0.1472
     16 S1         -1.6780    1.7909    0.0053 S.3       1 <0>         0.1458
     17 C11         1.1888    2.2625    0.0029 C.3       1 <0>        -0.0434
     18 C12         1.9005    2.0863    1.3548 C.3       1 <0>        -0.1091
     19 C13         2.7340    0.8269    1.3505 C.3       1 <0>        -0.1219
     20 C14         1.9802   -0.4776    1.4000 C.3       1 <0>        -0.1191
     21 C15         1.3092   -0.8013    0.0637 C.3       1 <0>        -0.0580
     22 H1         -9.6751    2.7532   -0.1184 H         1 <0>         0.1628
     23 H2        -11.7630    1.1749   -0.1921 H         1 <0>         0.2129
     24 H3         -8.3805   -1.3788   -0.1989 H         1 <0>         0.2127
     25 H4         -6.3588   -0.7908   -0.1377 H         1 <0>         0.4558
     26 H5         -4.4912    1.7368   -0.0476 H         1 <0>         0.4576
     27 H6         -1.3033   -1.7172   -0.0721 H         1 <0>         0.1451
     28 H7          1.8566    1.9830   -0.8253 H         1 <0>         0.0928
     29 H8          0.8585    3.3036   -0.1278 H         1 <0>         0.0821
     30 H9          2.5568    2.9497    1.5389 H         1 <0>         0.0761
     31 H10         1.1514    2.0174    2.1573 H         1 <0>         0.0677
     32 H11         3.3385    0.7904    0.4322 H         1 <0>         0.0623
     33 H12         3.3984    0.8239    2.2272 H         1 <0>         0.0633
     34 H13         2.6762   -1.2943    1.6421 H         1 <0>         0.0692
     35 H14         1.1990   -0.4206    2.1723 H         1 <0>         0.0629
     36 H15         1.0866   -1.8763   -0.0050 H         1 <0>         0.0758
     37 H16         1.9581   -0.5070   -0.7743 H         1 <0>         0.0770
@<TRIPOS>BOND
     1    1    5 1
     2    1    2 2
     3    1   22 1
     4    2    3 1
     5    2   23 1
     6    3    4 1
     7    4    5 2
     8    4   24 1
     9    5    6 1
    10    6    7 2
    11    6    8 am
    12    8    9 1
    13    8   25 1
    14    9   10 am
    15    9   26 1
    16   10   11 2
    17   10   12 1
    18   12   16 1
    19   12   13 2
    20   13   14 1
    21   13   27 1
    22   14   21 1
    23   14   15 2
    24   15   16 1
    25   15   17 1
    26   17   18 1
    27   17   28 1
    28   17   29 1
    29   18   19 1
    30   18   30 1
    31   18   31 1
    32   19   20 1
    33   19   32 1
    34   19   33 1
    35   20   21 1
    36   20   34 1
    37   20   35 1
    38   21   36 1
    39   21   37 1
@<TRIPOS>MOLECULE
ZINC00133125
   42    43     0     0     0
SMALL
USER_CHARGES

@<TRIPOS>ATOM
      1 C1         -0.0184    1.5028    0.0103 C.3       1 <0>        -0.1236
      2 C2          0.0021   -0.0041    0.0020 C.2       1 <0>         0.2540
      3 C3         -1.1646   -0.6842    0.0040 C.2       1 <0>        -0.2843
      4 C4         -1.0984   -2.1980   -0.0046 C.3       1 <0>         0.1983
      5 H1         -1.6352   -2.5529   -0.8844 H         1 <0>         0.0853
      6 N1          0.2423   -2.8072   -0.0144 N.am      1 <0>        -0.7111
      7 C5          1.3166   -1.9934   -0.0151 C.2       1 <0>         0.7042
      8 O1          2.4276   -2.4865   -0.0232 O.2       1 <0>        -0.5641
      9 N2          1.2000   -0.6595   -0.0129 N.am      1 <0>        -0.6462
     10 C6         -1.8390   -2.7095    1.2327 C.3       1 <0>        -0.1044
     11 H2         -2.8772   -2.3790    1.2009 H         1 <0>         0.1031
     12 C7         -1.7867   -4.2421    1.2680 C.3       1 <0>        -0.1183
     13 C8         -2.6810   -4.7307    2.4096 C.3       1 <0>        -0.0889
     14 C9         -2.3619   -3.9844    3.6718 C.2       1 <0>        -0.1558
     15 C10        -1.7051   -2.8696    3.7089 C.2       1 <0>        -0.1542
     16 C11        -1.1654   -2.1685    2.4956 C.3       1 <0>        -0.0798
     17 C12        -2.4062   -0.0065    0.0141 C.2       1 <0>         0.5351
     18 O2         -2.4353    1.2099    0.0213 O.2       1 <0>        -0.5172
     19 O3         -3.5583   -0.7091    0.0158 O.3       1 <0>        -0.3428
     20 C13        -4.7751    0.0403    0.0263 C.3       1 <0>         0.0813
     21 C14        -5.8680   -0.7519   -0.6941 C.3       1 <0>        -0.1504
     22 C15        -5.2021    0.2994    1.4724 C.3       1 <0>        -0.1710
     23 H3          1.0042    1.8801    0.0026 H         1 <0>         0.0696
     24 H4         -0.5455    1.8639   -0.8728 H         1 <0>         0.1064
     25 H5         -0.5286    1.8543    0.9071 H         1 <0>         0.1058
     26 H6          0.3496   -3.7712   -0.0198 H         1 <0>         0.4316
     27 H7          2.0121   -0.1290   -0.0178 H         1 <0>         0.4295
     28 H8         -2.1490   -4.6431    0.3214 H         1 <0>         0.0696
     29 H9         -0.7614   -4.5699    1.4398 H         1 <0>         0.0637
     30 H10        -3.7257   -4.5653    2.1463 H         1 <0>         0.0751
     31 H11        -2.5148   -5.7963    2.5680 H         1 <0>         0.0720
     32 H12        -2.7017   -4.4034    4.6075 H         1 <0>         0.1017
     33 H13        -1.5374   -2.4125    4.6730 H         1 <0>         0.1004
     34 H14        -0.0904   -2.3373    2.4324 H         1 <0>         0.0673
     35 H15        -1.3568   -1.0985    2.5772 H         1 <0>         0.0669
     36 H16        -4.6203    0.9915   -0.4829 H         1 <0>         0.0839
     37 H17        -6.0228   -1.7031   -0.1849 H         1 <0>         0.0672
     38 H18        -6.7961   -0.1803   -0.6861 H         1 <0>         0.0773
     39 H19        -5.5638   -0.9365   -1.7244 H         1 <0>         0.0640
     40 H20        -5.3568   -0.6519    1.9816 H         1 <0>         0.0652
     41 H21        -4.4234    0.8637    1.9856 H         1 <0>         0.0608
     42 H22        -6.1302    0.8709    1.4804 H         1 <0>         0.0730
@<TRIPOS>BOND
     1    1    2 1
     2    1   23 1
     3    1   24 1
     4    1   25 1
     5    2    9 1
     6    2    3 2
     7    3    4 1
     8    3   17 1
     9    4    5 1
    10    4    6 1
    11    4   10 1
    12    6    7 am
    13    6   26 1
    14    7    8 2
    15    7    9 am
    16    9   27 1
    17   10   11 1
    18   10   16 1
    19   10   12 1
    20   12   13 1
    21   12   28 1
    22   12   29 1
    23   13   14 1
    24   13   30 1
    25   13   31 1
    26   14   15 2
    27   14   32 1
    28   15   16 1
    29   15   33 1
    30   16   34 1
    31   16   35 1
    32   17   18 2
    33   17   19 1
    34   19   20 1
    35   20   21 1
    36   20   22 1
    37   20   36 1
    38   21   37 1
    39   21   38 1
    40   21   39 1
    41   22   40 1
    42   22   41 1
    43   22   42 1
@<TRIPOS>MOLECULE
ZINC43577900
   41    43     0     0     0
SMALL
USER_CHARGES

@<TRIPOS>ATOM
      1 C1         -0.0187    1.5258    0.0104 C.3       1 <0>        -0.1472
      2 C2          0.0021   -0.0041    0.0020 C.3       1 <0>        -0.0861
      3 H1          0.5120   -0.3575   -0.8942 H         1 <0>         0.0772
      4 C3         -1.4334   -0.5368    0.0195 C.3       1 <0>        -0.1152
      5 C4         -1.4381   -2.0457   -0.2348 C.3       1 <0>        -0.0395
      6 C5         -0.4792   -2.7084    0.7443 C.2       1 <0>         0.0977
      7 C6          0.4717   -1.9777    1.3807 C.2       1 <0>        -0.2256
      8 S1          1.2905   -3.1926    2.3758 S.3       1 <0>         0.1106
      9 C7          0.3660   -4.5209    1.9053 C.2       1 <0>         0.2935
     10 N1         -0.4874   -4.0031    1.0498 N.2       1 <0>        -0.5192
     11 N2          0.4787   -5.8427    2.3205 N.am      1 <0>        -0.6314
     12 C8         -0.3591   -6.7771    1.8292 C.2       1 <0>         0.6988
     13 O1         -1.2135   -6.4640    1.0229 O.2       1 <0>        -0.5280
     14 N3         -0.2498   -8.0587    2.2318 N.am      1 <0>        -0.7328
     15 C9         -1.1605   -9.0744    1.6978 C.3       1 <0>         0.1299
     16 C10        -0.8247  -10.4345    2.3129 C.3       1 <0>         0.0677
     17 H2          0.2297  -10.6612    2.1556 H         1 <0>         0.0894
     18 C11        -1.6983  -11.5314    1.6672 C.3       1 <0>        -0.1481
     19 C12        -2.0394  -12.4382    2.8810 C.3       1 <0>        -0.1563
     20 C13        -2.1333  -11.3875    4.0159 C.3       1 <0>         0.0485
     21 O2         -1.1141  -10.4181    3.7157 O.3       1 <0>        -0.3767
     22 C14         0.7393   -0.5161    1.2500 C.3       1 <0>        -0.0232
     23 H3          1.0039    1.9031    0.0027 H         1 <0>         0.0577
     24 H4         -0.5459    1.8868   -0.8726 H         1 <0>         0.0597
     25 H5         -0.5289    1.8773    0.9072 H         1 <0>         0.0574
     26 H6         -1.8828   -0.3328    0.9914 H         1 <0>         0.0676
     27 H7         -2.0136   -0.0377   -0.7566 H         1 <0>         0.0759
     28 H8         -2.4436   -2.4388   -0.0846 H         1 <0>         0.0843
     29 H9         -1.1137   -2.2454   -1.2561 H         1 <0>         0.0826
     30 H10         1.1603   -6.0925    2.9638 H         1 <0>         0.4217
     31 H11         0.4318   -8.3085    2.8751 H         1 <0>         0.4012
     32 H12        -2.1879   -8.8074    1.9452 H         1 <0>         0.0741
     33 H13        -1.0499   -9.1283    0.6147 H         1 <0>         0.0804
     34 H14        -2.6034  -11.1031    1.2366 H         1 <0>         0.0839
     35 H15        -1.1342  -12.0845    0.9162 H         1 <0>         0.0884
     36 H16        -2.9928  -12.9463    2.7362 H         1 <0>         0.0868
     37 H17        -1.2402  -13.1540    3.0735 H         1 <0>         0.0806
     38 H18        -3.1164  -10.9166    4.0151 H         1 <0>         0.0627
     39 H19        -1.9375  -11.8546    4.9811 H         1 <0>         0.0879
     40 H20         1.8102   -0.3443    1.1409 H         1 <0>         0.0805
     41 H21         0.3710    0.0042    2.1341 H         1 <0>         0.0825
@<TRIPOS>BOND
     1    1    2 1
     2    1   23 1
     3    1   24 1
     4    1   25 1
     5    2    3 1
     6    2   22 1
     7    2    4 1
     8    4    5 1
     9    4   26 1
    10    4   27 1
    11    5    6 1
    12    5   28 1
    13    5   29 1
    14    6   10 1
    15    6    7 2
    16    7    8 1
    17    7   22 1
    18    8    9 1
    19    9   10 2
    20    9   11 1
    21   11   12 am
    22   11   30 1
    23   12   13 2
    24   12   14 am
    25   14   15 1
    26   14   31 1
    27   15   16 1
    28   15   32 1
    29   15   33 1
    30   16   17 1
    31   16   21 1
    32   16   18 1
    33   18   19 1
    34   18   34 1
    35   18   35 1
    36   19   20 1
    37   19   36 1
    38   19   37 1
    39   20   21 1
    40   20   38 1
    41   20   39 1
    42   22   40 1
    43   22   41 1
@<TRIPOS>MOLECULE
ZINC51241377
   51    53     0     0     0
SMALL
USER_CHARGES

@<TRIPOS>ATOM
      1 C1          1.5922   -2.7496    4.7963 C.3       1 <0>        -0.1475
      2 C2          0.6159   -1.5716    4.8121 C.3       1 <0>        -0.0974
      3 H1          0.7883   -0.9688    5.7038 H         1 <0>         0.0734
      4 C3         -0.8201   -2.0995    4.8231 C.3       1 <0>        -0.1118
      5 C4         -1.7964   -0.9216    4.8388 C.3       1 <0>        -0.1223
      6 C5         -1.5785   -0.0619    3.5921 C.3       1 <0>        -0.1177
      7 C6         -0.1425    0.4660    3.5811 C.3       1 <0>        -0.1290
      8 C7          0.8338   -0.7120    3.5654 C.3       1 <0>         0.1666
      9 H2          0.6614   -1.3148    2.6737 H         1 <0>         0.0906
     10 N1          2.2088   -0.2065    3.5549 N.am      1 <0>        -0.7415
     11 C8          2.7950    0.1277    2.3882 C.2       1 <0>         0.7098
     12 O1          2.2180   -0.0762    1.3375 O.2       1 <0>        -0.5820
     13 N2          4.0207    0.6881    2.3862 N.am      1 <0>        -0.6274
     14 C9          4.6242    1.1640    1.1339 C.3       1 <0>         0.1259
     15 C10         5.0468    2.6254    1.3144 C.3       1 <0>        -0.1356
     16 C11         5.9611    2.7406    2.5363 C.3       1 <0>        -0.0997
     17 C12         5.1998    2.2998    3.7886 C.3       1 <0>        -0.1219
     18 H3          4.3135    2.9218    3.9134 H         1 <0>         0.1040
     19 C13         4.7764    0.8403    3.6370 C.3       1 <0>         0.1250
     20 C14         6.0902    2.4450    4.9957 C.2       1 <0>         0.5241
     21 O2          7.2225    2.8602    4.8676 O.2       1 <0>        -0.5259
     22 N3          5.6283    2.1134    6.2176 N.am      1 <0>        -0.7035
     23 C15         6.4939    2.2546    7.3911 C.3       1 <0>         0.0758
     24 C16         6.4948    1.1129    8.4097 C.3       1 <0>        -0.1914
     25 C17         5.8165    2.4414    8.7502 C.3       1 <0>        -0.1882
     26 H4          2.6152   -2.3735    4.7885 H         1 <0>         0.0528
     27 H5          1.4370   -3.3620    5.6846 H         1 <0>         0.0578
     28 H6          1.4199   -3.3524    3.9047 H         1 <0>         0.0574
     29 H7         -0.9924   -2.7023    3.9314 H         1 <0>         0.0665
     30 H8         -0.9753   -2.7119    5.7113 H         1 <0>         0.0680
     31 H9         -2.8194   -1.2976    4.8467 H         1 <0>         0.0650
     32 H10        -1.6240   -0.3187    5.7305 H         1 <0>         0.0621
     33 H11        -1.7508   -0.6647    2.7004 H         1 <0>         0.0652
     34 H12        -2.2740    0.7773    3.6033 H         1 <0>         0.0650
     35 H13         0.0127    1.0784    2.6929 H         1 <0>         0.0670
     36 H14         0.0298    1.0688    4.4728 H         1 <0>         0.0614
     37 H15         2.6973   -0.1124    4.3876 H         1 <0>         0.3912
     38 H16         5.4981    0.5577    0.8959 H         1 <0>         0.0685
     39 H17         3.8956    1.0914    0.3265 H         1 <0>         0.0974
     40 H18         5.5821    2.9616    0.4265 H         1 <0>         0.0841
     41 H19         4.1619    3.2444    1.4625 H         1 <0>         0.0685
     42 H20         6.8338    2.1023    2.3983 H         1 <0>         0.0749
     43 H21         6.2831    3.7755    2.6526 H         1 <0>         0.0768
     44 H22         4.1481    0.5541    4.4805 H         1 <0>         0.0767
     45 H23         5.6630    0.2069    3.6076 H         1 <0>         0.0781
     46 H24         4.7227    1.7813    6.3201 H         1 <0>         0.4000
     47 H25         7.4344    2.7787    7.2212 H         1 <0>         0.1390
     48 H26         5.8514    0.2568    8.2067 H         1 <0>         0.0973
     49 H27         7.4361    0.8856    8.9101 H         1 <0>         0.1040
     50 H28         6.3116    3.0881    9.4746 H         1 <0>         0.1051
     51 H29         4.7269    2.4593    8.7713 H         1 <0>         0.0977
@<TRIPOS>BOND
     1    1    2 1
     2    1   26 1
     3    1   27 1
     4    1   28 1
     5    2    3 1
     6    2    8 1
     7    2    4 1
     8    4    5 1
     9    4   29 1
    10    4   30 1
    11    5    6 1
    12    5   31 1
    13    5   32 1
    14    6    7 1
    15    6   33 1
    16    6   34 1
    17    7    8 1
    18    7   35 1
    19    7   36 1
    20    8    9 1
    21    8   10 1
    22   10   11 am
    23   10   37 1
    24   11   12 2
    25   11   13 am
    26   13   19 1
    27   13   14 1
    28   14   15 1
    29   14   38 1
    30   14   39 1
    31   15   16 1
    32   15   40 1
    33   15   41 1
    34   16   17 1
    35   16   42 1
    36   16   43 1
    37   17   18 1
    38   17   19 1
    39   17   20 1
    40   19   44 1
    41   19   45 1
    42   20   21 2
    43   20   22 am
    44   22   23 1
    45   22   46 1
    46   23   25 1
    47   23   24 1
    48   23   47 1
    49   24   25 1
    50   24   48 1
    51   24   49 1
    52   25   50 1
    53   25   51 1
@<TRIPOS>MOLECULE
ZINC61979697
   33    34     0     0     0
SMALL
USER_CHARGES

@<TRIPOS>ATOM
      1 C1         -0.0178    1.4608    0.0101 C.3       1 <0>         0.0507
      2 N1          0.0021   -0.0041    0.0020 N.pl3     1 <0>        -0.9404
      3 C2          0.0230   -0.7064    1.2035 C.ar      1 <0>         0.1995
      4 C3          0.5560   -1.9913    1.2474 C.ar      1 <0>        -0.1587
      5 C4          0.5783   -2.6887    2.4340 C.ar      1 <0>        -0.0283
      6 C5          0.0647   -2.1049    3.5959 C.ar      1 <0>        -0.0519
      7 C6         -0.4699   -0.8139    3.5482 C.ar      1 <0>        -0.0367
      8 C7         -0.4839   -0.1200    2.3595 C.ar      1 <0>        -0.1498
      9 C8          0.0859   -2.8276    4.8319 C.1       1 <0>         0.2532
     10 N2          0.1026   -3.4010    5.8124 N.1       1 <0>        -0.4138
     11 S1         -0.0004   -0.8243   -1.4366 S.o2      1 <0>         2.6868
     12 O1         -0.5312   -2.1147   -1.1675 O.2       1 <0>        -0.9315
     13 O2         -0.5723    0.0488   -2.4009 O.2       1 <0>        -0.9406
     14 C9          1.6818   -1.0594   -1.9051 C.ar      1 <0>        -0.7328
     15 C10         2.2079   -2.3348   -1.9757 C.ar      1 <0>        -0.0137
     16 C11         3.5295   -2.5201   -2.3442 C.ar      1 <0>         0.0306
     17 C12         4.3270   -1.4280   -2.6424 C.ar      1 <0>        -0.0459
     18 C13         3.8054   -0.1512   -2.5727 C.ar      1 <0>        -0.1792
     19 C14         2.4781    0.0368   -2.2092 C.ar      1 <0>         0.3056
     20 N3          1.9461    1.3282   -2.1440 N.pl3     1 <0>        -0.8688
     21 F1          4.0419   -3.7683   -2.4126 F         1 <0>        -0.1353
     22 H1          1.0048    1.8381    0.0023 H         1 <0>         0.0770
     23 H2         -0.5450    1.8219   -0.8730 H         1 <0>         0.0967
     24 H3         -0.5280    1.8123    0.9069 H         1 <0>         0.1007
     25 H4          0.9522   -2.4419    0.3494 H         1 <0>         0.1380
     26 H5          0.9916   -3.6859    2.4673 H         1 <0>         0.1428
     27 H6         -0.8674   -0.3600    4.4439 H         1 <0>         0.1409
     28 H7         -0.8924    0.8791    2.3229 H         1 <0>         0.1429
     29 H8          1.5879   -3.1879   -1.7429 H         1 <0>         0.1572
     30 H9          5.3578   -1.5749   -2.9294 H         1 <0>         0.1474
     31 H10         4.4280    0.7003   -2.8047 H         1 <0>         0.1446
     32 H11         1.0202    1.4589   -1.8862 H         1 <0>         0.3997
     33 H12         2.5030    2.0934   -2.3566 H         1 <0>         0.4131
@<TRIPOS>BOND
     1    1    2 1
     2    1   22 1
     3    1   23 1
     4    1   24 1
     5    2    3 1
     6    2   11 1
     7    3    8 ar
     8    3    4 ar
     9    4    5 ar
    10    4   25 1
    11    5    6 ar
    12    5   26 1
    13    6    7 ar
    14    6    9 1
    15    7    8 ar
    16    7   27 1
    17    8   28 1
    18    9   10 3
    19   11   12 2
    20   11   13 2
    21   11   14 1
    22   14   19 ar
    23   14   15 ar
    24   15   16 ar
    25   15   29 1
    26   16   17 ar
    27   16   21 1
    28   17   18 ar
    29   17   30 1
    30   18   19 ar
    31   18   31 1
    32   19   20 1
    33   20   32 1
    34   20   33 1
@<TRIPOS>MOLECULE
ZINC02893092
   38    41     0     0     0
SMALL
USER_CHARGES
3-(4-bromophenyl)amino-3-phenyl-isobenzofuran-1-one
@<TRIPOS>ATOM
      1 C1         -3.8902    5.9005   -3.1494 C.ar      1 <0>        -0.1027
      2 C2         -3.1087    4.9117   -2.5816 C.ar      1 <0>        -0.1178
      3 C3         -2.2753    5.2133   -1.5207 C.ar      1 <0>        -0.0828
      4 C4         -2.2239    6.5035   -1.0273 C.ar      1 <0>        -0.1074
      5 C5         -3.0096    7.4911   -1.5914 C.ar      1 <0>        -0.0937
      6 C6         -3.8387    7.1908   -2.6560 C.ar      1 <0>        -0.1159
      7 C7         -1.3158    6.8321    0.1296 C.3       1 <0>         0.4309
      8 C8         -2.0580    6.6740    1.4327 C.ar      1 <0>        -0.1006
      9 C9         -2.6752    5.6081    2.0448 C.ar      1 <0>        -0.0815
     10 C10        -3.2898    5.7778    3.2742 C.ar      1 <0>        -0.0781
     11 C11        -3.2849    7.0171    3.8901 C.ar      1 <0>        -0.1127
     12 C12        -2.6690    8.0930    3.2853 C.ar      1 <0>        -0.0348
     13 C13        -2.0476    7.9299    2.0456 C.ar      1 <0>        -0.1807
     14 C14        -1.3222    8.8623    1.1638 C.2       1 <0>         0.5223
     15 O1         -1.1318   10.0381    1.4020 O.2       1 <0>        -0.4365
     16 O2         -0.9016    8.2241    0.0590 O.3       1 <0>        -0.3144
     17 N1         -0.1413    5.9566    0.1106 N.pl3     1 <0>        -0.7267
     18 C15         0.8409    6.1264   -0.8685 C.ar      1 <0>         0.2200
     19 C16         2.0179    5.3914   -0.8083 C.ar      1 <0>        -0.1775
     20 C17         2.9867    5.5610   -1.7778 C.ar      1 <0>        -0.0488
     21 C18         2.7858    6.4619   -2.8084 C.ar      1 <0>        -0.1354
     22 C19         1.6167    7.1996   -2.8679 C.ar      1 <0>        -0.0478
     23 C20         0.6419    7.0302   -1.9044 C.ar      1 <0>        -0.1628
     24 Br1         4.1147    6.6912   -4.1339 Br        1 <0>        -0.0575
     25 H1         -4.5407    5.6651   -3.9788 H         1 <0>         0.1276
     26 H2         -3.1489    3.9037   -2.9672 H         1 <0>         0.1287
     27 H3         -1.6648    4.4407   -1.0771 H         1 <0>         0.1262
     28 H4         -2.9727    8.4982   -1.2030 H         1 <0>         0.1224
     29 H5         -4.4491    7.9634   -3.0998 H         1 <0>         0.1289
     30 H6         -2.6809    4.6396    1.5669 H         1 <0>         0.1375
     31 H7         -3.7741    4.9401    3.7540 H         1 <0>         0.1425
     32 H8         -3.7654    7.1424    4.8492 H         1 <0>         0.1425
     33 H9         -2.6674    9.0586    3.7691 H         1 <0>         0.1416
     34 H10        -0.0455    5.2591    0.7778 H         1 <0>         0.4134
     35 H11         2.1752    4.6877   -0.0042 H         1 <0>         0.1306
     36 H12         3.9020    4.9895   -1.7316 H         1 <0>         0.1334
     37 H13         1.4646    7.9057   -3.6709 H         1 <0>         0.1319
     38 H14        -0.2723    7.6030   -1.9538 H         1 <0>         0.1358
@<TRIPOS>BOND
     1    1    6 ar
     2    1    2 ar
     3    1   25 1
     4    2    3 ar
     5    2   26 1
     6    3    4 ar
     7    3   27 1
     8    4    5 ar
     9    4    7 1
    10    5    6 ar
    11    5   28 1
    12    6   29 1
    13    7   16 1
    14    7    8 1
    15    7   17 1
    16    8   13 ar
    17    8    9 ar
    18    9   10 ar
    19    9   30 1
    20   10   11 ar
    21   10   31 1
    22   11   12 ar
    23   11   32 1
    24   12   13 ar
    25   12   33 1
    26   13   14 1
    27   14   15 2
    28   14   16 1
    29   17   18 1
    30   17   34 1
    31   18   23 ar
    32   18   19 ar
    33   19   20 ar
    34   19   35 1
    35   20   21 ar
    36   20   36 1
    37   21   22 ar
    38   21   24 1
    39   22   23 ar
    40   22   37 1
    41   23   38 1
@<TRIPOS>MOLECULE
ZINC07403968
   30    31     0     0     0
SMALL
USER_CHARGES
4-bromo-2-chloro-N-(2-chloro-4-methyl-phenyl)-benzenesulfonamide
@<TRIPOS>ATOM
      1 C1         -2.4797    4.0233   -0.8572 C.3       1 <0>        -0.1154
      2 C2         -1.2001    3.2549   -0.6494 C.ar      1 <0>        -0.0877
      3 C3         -1.2355    1.8787   -0.5172 C.ar      1 <0>        -0.0757
      4 C4         -0.0655    1.1714   -0.3214 C.ar      1 <0>        -0.1601
      5 C5          1.1493    1.8424   -0.2676 C.ar      1 <0>         0.1736
      6 C6          1.1825    3.2250   -0.4060 C.ar      1 <0>        -0.0518
      7 C7          0.0072    3.9269   -0.5965 C.ar      1 <0>        -0.0803
      8 Cl1         2.6980    4.0691   -0.3392 Cl        1 <0>        -0.0556
      9 N1          2.3355    1.1291   -0.0754 N.pl3     1 <0>        -1.0465
     10 S1          2.5133   -0.3768   -0.7410 S.o2      1 <0>         2.6875
     11 O1          2.0643   -0.2819   -2.0859 O.2       1 <0>        -0.9279
     12 O2          3.8214   -0.8180   -0.4039 O.2       1 <0>        -0.9227
     13 C8          1.3900   -1.4499    0.0904 C.ar      1 <0>        -0.6701
     14 C9          0.3612   -2.0508   -0.6106 C.ar      1 <0>        -0.0050
     15 C10        -0.5202   -2.8926    0.0410 C.ar      1 <0>        -0.1040
     16 C11        -0.3731   -3.1347    1.3953 C.ar      1 <0>        -0.0276
     17 C12         0.6558   -2.5339    2.0971 C.ar      1 <0>        -0.0989
     18 C13         1.5411   -1.6953    1.4434 C.ar      1 <0>         0.0603
     19 Cl2         2.8377   -0.9467    2.3221 Cl        1 <0>        -0.0247
     20 Br1        -1.5793   -4.2866    2.2865 Br        1 <0>        -0.0119
     21 H1         -2.6856    4.1043   -1.9245 H         1 <0>         0.0765
     22 H2         -3.3011    3.5005   -0.3673 H         1 <0>         0.0715
     23 H3         -2.3778    5.0210   -0.4301 H         1 <0>         0.0709
     24 H4         -2.1799    1.3567   -0.5635 H         1 <0>         0.1378
     25 H5         -0.0948    0.0971   -0.2146 H         1 <0>         0.1341
     26 H6          0.0319    5.0012   -0.7045 H         1 <0>         0.1419
     27 H7          3.0547    1.5160    0.4480 H         1 <0>         0.4317
     28 H8          0.2463   -1.8627   -1.6678 H         1 <0>         0.1672
     29 H9         -1.3238   -3.3618   -0.5071 H         1 <0>         0.1558
     30 H10         0.7710   -2.7227    3.1542 H         1 <0>         0.1571
@<TRIPOS>BOND
     1    1    2 1
     2    1   21 1
     3    1   22 1
     4    1   23 1
     5    2    7 ar
     6    2    3 ar
     7    3    4 ar
     8    3   24 1
     9    4    5 ar
    10    4   25 1
    11    5    6 ar
    12    5    9 1
    13    6    7 ar
    14    6    8 1
    15    7   26 1
    16    9   10 1
    17    9   27 1
    18   10   11 2
    19   10   12 2
    20   10   13 1
    21   13   18 ar
    22   13   14 ar
    23   14   15 ar
    24   14   28 1
    25   15   16 ar
    26   15   29 1
    27   16   17 ar
    28   16   20 1
    29   17   18 ar
    30   17   30 1
    31   18   19 1
@<TRIPOS>MOLECULE
ZINC20883478
   52    55     0     0     0
SMALL
USER_CHARGES
(4S,7S)-7-(4-ethylphenyl)-4-(m-tolyl)-1,3,4,6,7,8-hexahydroquinoline-2,5-dione
@<TRIPOS>ATOM
      1 C1          0.9304   -0.6705    7.0834 C.3       1 <0>        -0.1492
      2 C2          1.9463   -0.4929    5.9533 C.3       1 <0>        -0.0895
      3 C3          1.2490    0.0473    4.7314 C.ar      1 <0>        -0.0781
      4 C4          1.1460    1.4127    4.5414 C.ar      1 <0>        -0.1153
      5 C5          0.5064    1.9082    3.4206 C.ar      1 <0>        -0.1071
      6 C6         -0.0301    1.0385    2.4897 C.ar      1 <0>        -0.0889
      7 C7          0.0683   -0.3269    2.6823 C.ar      1 <0>        -0.1099
      8 C8          0.7129   -0.8225    3.8003 C.ar      1 <0>        -0.1151
      9 C9         -0.7278    1.5787    1.2680 C.3       1 <0>        -0.0339
     10 H1         -0.7038    2.6774    1.3165 H         1 <0>         0.0924
     11 C10        -0.0127    1.0858    0.0080 C.3       1 <0>        -0.0949
     12 C11        -0.7410    1.5849   -1.2150 C.2       1 <0>         0.2286
     13 C12        -2.0751    1.7875   -1.1910 C.2       1 <0>        -0.2754
     14 C13        -2.7838    2.2824   -2.4298 C.3       1 <0>         0.0074
     15 H2         -3.7144    2.7903   -2.1365 H         1 <0>         0.1106
     16 C14        -1.8693    3.2472   -3.1866 C.3       1 <0>        -0.1380
     17 C15        -0.5037    2.6255   -3.3266 C.2       1 <0>         0.5287
     18 O1          0.1616    2.8440   -4.3164 O.2       1 <0>        -0.5068
     19 N1         -0.0212    1.8298   -2.3567 N.am      1 <0>        -0.6744
     20 C16        -3.1234    1.1120   -3.3163 C.ar      1 <0>        -0.0729
     21 C17        -2.1161    0.3050   -3.8119 C.ar      1 <0>        -0.1315
     22 C18        -2.4279   -0.7713   -4.6209 C.ar      1 <0>        -0.1129
     23 C19        -3.7463   -1.0348   -4.9432 C.ar      1 <0>        -0.1222
     24 C20        -4.7529   -0.2250   -4.4520 C.ar      1 <0>        -0.0823
     25 C21        -4.4414    0.8486   -3.6384 C.ar      1 <0>        -0.1056
     26 C22        -6.1899   -0.5119   -4.8036 C.3       1 <0>        -0.1185
     27 C23        -2.8303    1.5504   -0.0303 C.2       1 <0>         0.4079
     28 O2         -4.0315    1.7310   -0.0511 O.2       1 <0>        -0.4655
     29 C24        -2.1741    1.0756    1.2385 C.3       1 <0>        -0.1609
     30 H3          1.4393   -1.0648    7.9753 H         1 <0>         0.0596
     31 H4          0.1482   -1.3757    6.7658 H         1 <0>         0.0564
     32 H5          0.4733    0.3013    7.3216 H         1 <0>         0.0564
     33 H6          2.7285    0.2123    6.2709 H         1 <0>         0.0727
     34 H7          2.4034   -1.4646    5.7151 H         1 <0>         0.0728
     35 H8          1.5649    2.0922    5.2688 H         1 <0>         0.1223
     36 H9          0.4257    2.9750    3.2723 H         1 <0>         0.1228
     37 H10        -0.3548   -1.0064    1.9573 H         1 <0>         0.1220
     38 H11         0.7936   -1.8892    3.9485 H         1 <0>         0.1221
     39 H12         1.0193    1.4663   -0.0004 H         1 <0>         0.0975
     40 H13         0.0020   -0.0141    0.0012 H         1 <0>         0.1047
     41 H14        -2.2897    3.4449   -4.1837 H         1 <0>         0.1150
     42 H15        -1.7903    4.1916   -2.6282 H         1 <0>         0.1115
     43 H16         0.9698    1.3717   -2.4910 H         1 <0>         0.4401
     44 H17        -1.0858    0.5135   -3.5638 H         1 <0>         0.1185
     45 H18        -1.6413   -1.4039   -5.0050 H         1 <0>         0.1200
     46 H19        -3.9896   -1.8732   -5.5790 H         1 <0>         0.1211
     47 H20        -5.2279    1.4816   -3.2549 H         1 <0>         0.1244
     48 H21        -6.8407    0.2340   -4.3238 H         1 <0>         0.0667
     49 H22        -6.4605   -1.5172   -4.4486 H         1 <0>         0.0702
     50 H23        -6.3173   -0.4618   -5.8950 H         1 <0>         0.0704
     51 H24        -2.1806   -0.0239    1.2713 H         1 <0>         0.1042
     52 H25        -2.7179    1.4716    2.1088 H         1 <0>         0.1015
@<TRIPOS>BOND
     1    1    2 1
     2    1   30 1
     3    1   31 1
     4    1   32 1
     5    2    3 1
     6    2   33 1
     7    2   34 1
     8    3    8 ar
     9    3    4 ar
    10    4    5 ar
    11    4   35 1
    12    5    6 ar
    13    5   36 1
    14    6    7 ar
    15    6    9 1
    16    7    8 ar
    17    7   37 1
    18    8   38 1
    19    9   10 1
    20    9   29 1
    21    9   11 1
    22   11   12 1
    23   11   39 1
    24   11   40 1
    25   12   19 1
    26   12   13 2
    27   13   14 1
    28   13   27 1
    29   14   15 1
    30   14   16 1
    31   14   20 1
    32   16   17 1
    33   16   41 1
    34   16   42 1
    35   17   18 2
    36   17   19 am
    37   19   43 1
    38   20   25 ar
    39   20   21 ar
    40   21   22 ar
    41   21   44 1
    42   22   23 ar
    43   22   45 1
    44   23   24 ar
    45   23   46 1
    46   24   25 ar
    47   24   26 1
    48   25   47 1
    49   26   48 1
    50   26   49 1
    51   26   50 1
    52   27   28 2
    53   27   29 1
    54   29   51 1
    55   29   52 1
@<TRIPOS>MOLECULE
ZINC40799480
   40    43     0     0     0
SMALL
USER_CHARGES

@<TRIPOS>ATOM
      1 C1         -0.2067    0.9092   -1.6618 C.2       1 <0>        -0.1569
      2 C2          0.6452    1.9486   -1.5328 C.2       1 <0>        -0.1451
      3 S1          1.9576    1.2568   -0.5405 S.3       1 <0>         0.0784
      4 C3          1.2967   -0.3797   -0.3533 C.2       1 <0>        -0.1926
      5 C4          0.0921   -0.3226   -1.0641 C.2       1 <0>         0.0591
      6 N1         -0.4739   -1.5905   -0.9505 N.pl3     1 <0>        -0.3908
      7 C5          0.3570   -2.3924   -0.1966 C.2       1 <0>        -0.0032
      8 C6          1.4557   -1.6498    0.1778 C.2       1 <0>        -0.0878
      9 C7          0.1131   -3.7945    0.1477 C.2       1 <0>         0.5934
     10 O1         -0.8387   -4.3825   -0.3324 O.2       1 <0>        -0.5130
     11 N2          0.9423   -4.4342    0.9960 N.am      1 <0>        -0.6584
     12 C8          0.7548   -5.7934    1.2650 C.ar      1 <0>         0.1743
     13 C9         -0.5288   -6.3205    1.3229 C.ar      1 <0>        -0.1080
     14 C10        -0.7113   -7.6647    1.5886 C.ar      1 <0>        -0.0053
     15 C11         0.3836   -8.4849    1.7972 C.ar      1 <0>        -0.1153
     16 C12         1.6637   -7.9623    1.7401 C.ar      1 <0>        -0.0047
     17 C13         1.8521   -6.6200    1.4692 C.ar      1 <0>        -0.1304
     18 Cl1         3.0344   -8.9947    2.0030 Cl        1 <0>        -0.0475
     19 Cl2        -2.3154   -8.3244    1.6611 Cl        1 <0>        -0.0475
     20 C14        -1.7498   -2.0060   -1.5383 C.3       1 <0>         0.1267
     21 C15        -2.6273   -0.7698   -1.8243 C.3       1 <0>        -0.1419
     22 C16        -2.3552   -0.4475   -3.3147 C.3       1 <0>        -0.1395
     23 C17        -2.2450   -1.8540   -3.9540 C.3       1 <0>        -0.1232
     24 C18        -1.5068   -2.6953   -2.8924 C.3       1 <0>        -0.1269
     25 H1         -1.1219    1.0285   -2.2227 H         1 <0>         0.1491
     26 H2          0.5554    2.9484   -1.9309 H         1 <0>         0.1952
     27 H3          2.2874   -1.9941    0.7746 H         1 <0>         0.1551
     28 H4          1.6692   -3.9516    1.4200 H         1 <0>         0.4197
     29 H5         -1.3836   -5.6807    1.1609 H         1 <0>         0.1565
     30 H6          0.2388   -9.5347    2.0054 H         1 <0>         0.1476
     31 H7          2.8515   -6.2134    1.4206 H         1 <0>         0.1462
     32 H8         -2.2689   -2.6847   -0.8616 H         1 <0>         0.1118
     33 H9         -3.6804   -1.0058   -1.6711 H         1 <0>         0.0897
     34 H10        -2.3268    0.0658   -1.1922 H         1 <0>         0.0830
     35 H11        -3.1862    0.1095   -3.7474 H         1 <0>         0.0761
     36 H12        -1.4205    0.1021   -3.4266 H         1 <0>         0.0801
     37 H13        -3.2363   -2.2650   -4.1447 H         1 <0>         0.0719
     38 H14        -1.6655   -1.8095   -4.8761 H         1 <0>         0.0707
     39 H15        -0.4394   -2.7207   -3.1121 H         1 <0>         0.0702
     40 H16        -1.9087   -3.7083   -2.8731 H         1 <0>         0.0830
@<TRIPOS>BOND
     1    1    5 1
     2    1    2 2
     3    1   25 1
     4    2    3 1
     5    2   26 1
     6    3    4 1
     7    4    8 1
     8    4    5 2
     9    5    6 1
    10    6    7 1
    11    6   20 1
    12    7    8 2
    13    7    9 1
    14    8   27 1
    15    9   10 2
    16    9   11 am
    17   11   12 1
    18   11   28 1
    19   12   17 ar
    20   12   13 ar
    21   13   14 ar
    22   13   29 1
    23   14   15 ar
    24   14   19 1
    25   15   16 ar
    26   15   30 1
    27   16   17 ar
    28   16   18 1
    29   17   31 1
    30   20   24 1
    31   20   21 1
    32   20   32 1
    33   21   22 1
    34   21   33 1
    35   21   34 1
    36   22   23 1
    37   22   35 1
    38   22   36 1
    39   23   24 1
    40   23   37 1
    41   23   38 1
    42   24   39 1
    43   24   40 1
@<TRIPOS>MOLECULE
ZINC13786952
   29    31     0     0     0
SMALL
USER_CHARGES

@<TRIPOS>ATOM
      1 C1         -0.0167    1.3792    0.0096 C.ar      1 <0>        -0.0924
      2 C2          1.1665    2.0886    0.0021 C.ar      1 <0>        -0.0852
      3 C3          2.3857    1.4073   -0.0131 C.ar      1 <0>         0.0993
      4 C4          2.3980    0.0105   -0.0207 C.ar      1 <0>        -0.1427
      5 C5          1.2070   -0.6866   -0.0131 C.ar      1 <0>        -0.0705
      6 C6          0.0021   -0.0041    0.0020 C.ar      1 <0>        -0.0957
      7 Br1         1.2203   -2.5775   -0.0239 Br        1 <0>        -0.0394
      8 N1          3.5627    2.1050   -0.0211 N.2       1 <0>        -0.4538
      9 C7          4.5466    1.7435    0.7728 C.2       1 <0>         0.3772
     10 N2          4.5847    0.6984    1.6695 N.am      1 <0>        -0.6891
     11 C8          5.6664    0.4739    2.3961 C.2       1 <0>         0.5576
     12 C9          6.8058    1.3826    2.1997 C.2       1 <0>        -0.2483
     13 C10         8.0267    1.3825    2.8063 C.2       1 <0>         0.1244
     14 C11         8.9876    2.3618    2.4620 C.2       1 <0>        -0.2221
     15 C12        10.2784    2.5338    2.9510 C.2       1 <0>        -0.0825
     16 C13        10.9806    3.5884    2.4174 C.2       1 <0>        -0.1829
     17 C14        10.3887    4.3678    1.4793 C.2       1 <0>        -0.2184
     18 S1          8.8630    3.6929    1.2828 S.3       1 <0>         0.2244
     19 S2          6.1626    2.4825    0.9466 S.3       1 <0>         0.0946
     20 O1          5.7167   -0.4453    3.1936 O.2       1 <0>        -0.4848
     21 H1         -0.9599    1.9050    0.0260 H         1 <0>         0.1428
     22 H2          1.1500    3.1684    0.0077 H         1 <0>         0.1415
     23 H3          3.3372   -0.5226   -0.0328 H         1 <0>         0.1319
     24 H4         -0.9273   -0.5543    0.0079 H         1 <0>         0.1391
     25 H5          8.2603    0.6346    3.5496 H         1 <0>         0.1736
     26 H6         10.7012    1.8817    3.7009 H         1 <0>         0.1512
     27 H7         11.9902    3.7935    2.7416 H         1 <0>         0.1406
     28 H8         10.8052    5.2246    0.9704 H         1 <0>         0.1913
     29 H9          3.8109    0.1221    1.7690 H         1 <0>         0.4183
@<TRIPOS>BOND
     1    1    6 ar
     2    1    2 ar
     3    1   21 1
     4    2    3 ar
     5    2   22 1
     6    3    4 ar
     7    3    8 1
     8    4    5 ar
     9    4   23 1
    10    5    6 ar
    11    5    7 1
    12    6   24 1
    13    8    9 2
    14    9   19 1
    15    9   10 1
    16   10   11 am
    17   10   29 1
    18   11   12 1
    19   11   20 2
    20   12   13 2
    21   12   19 1
    22   13   14 1
    23   13   25 1
    24   14   18 1
    25   14   15 2
    26   15   16 1
    27   15   26 1
    28   16   17 2
    29   16   27 1
    30   17   18 1
    31   17   28 1
@<TRIPOS>MOLECULE
ZINC04902570
   39    42     0     0     0
SMALL
USER_CHARGES
2,6,7-trihydroxy-9-(p-tolyl)xanthen-3-one
@<TRIPOS>ATOM
      1 C1         -6.2959    1.9481    0.0766 C.3       1 <0>        -0.1228
      2 C2         -4.9627    1.2459    0.0591 C.ar      1 <0>        -0.0620
      3 C3         -4.1280    1.3802   -1.0370 C.ar      1 <0>        -0.1180
      4 C4         -2.9067    0.7408   -1.0604 C.ar      1 <0>        -0.0831
      5 C5         -2.5122   -0.0453    0.0267 C.ar      1 <0>        -0.0918
      6 C6         -3.3636   -0.1811    1.1278 C.ar      1 <0>        -0.0849
      7 C7         -4.5792    0.4695    1.1390 C.ar      1 <0>        -0.1181
      8 C8         -1.2077   -0.7323    0.0097 C.2       1 <0>         0.1115
      9 C9         -1.1208   -2.1945    0.0010 C.ar      1 <0>        -0.1453
     10 C10        -2.2797   -2.9827    0.0083 C.ar      1 <0>        -0.0591
     11 C11        -2.1735   -4.3453   -0.0001 C.ar      1 <0>         0.0629
     12 C12        -0.9133   -4.9549   -0.0154 C.ar      1 <0>         0.1561
     13 C13         0.2391   -4.1888   -0.0232 C.ar      1 <0>        -0.1549
     14 C14         0.1506   -2.8032   -0.0149 C.ar      1 <0>         0.1647
     15 O1          1.2693   -2.0501   -0.0215 O.3       1 <0>        -0.2084
     16 C15         1.2336   -0.7016   -0.0140 C.2       1 <0>         0.1962
     17 C16         2.4164    0.0142   -0.0214 C.2       1 <0>        -0.2847
     18 C17         2.3870    1.4117   -0.0132 C.2       1 <0>         0.3939
     19 O2          3.4370    2.0437   -0.0198 O.2       1 <0>        -0.4727
     20 C18         1.1510    2.1001    0.0023 C.2       1 <0>         0.0278
     21 C19        -0.0170    1.4049    0.0098 C.2       1 <0>        -0.0821
     22 C20         0.0021   -0.0041    0.0020 C.2       1 <0>        -0.1346
     23 O3          1.1315    3.4600    0.0094 O.3       1 <0>        -0.4781
     24 O4         -0.8211   -6.3090   -0.0235 O.3       1 <0>        -0.4770
     25 O5         -3.2968   -5.1122    0.0070 O.3       1 <0>        -0.4790
     26 H1         -7.0558    1.2958   -0.3537 H         1 <0>         0.0766
     27 H2         -6.5653    2.1909    1.1045 H         1 <0>         0.0712
     28 H3         -6.2311    2.8656   -0.5084 H         1 <0>         0.0715
     29 H4         -4.4342    1.9877   -1.8759 H         1 <0>         0.1324
     30 H5         -2.2566    0.8466   -1.9163 H         1 <0>         0.1306
     31 H6         -3.0678   -0.7905    1.9690 H         1 <0>         0.1296
     32 H7         -5.2358    0.3694    1.9907 H         1 <0>         0.1320
     33 H8         -3.2531   -2.5150    0.0208 H         1 <0>         0.1528
     34 H9          1.2067   -4.6684   -0.0357 H         1 <0>         0.1602
     35 H10         3.3626   -0.5062   -0.0332 H         1 <0>         0.1523
     36 H11        -0.9595    1.9323    0.0171 H         1 <0>         0.1471
     37 H12         1.1341    3.8488    0.8948 H         1 <0>         0.3932
     38 H13        -0.8028   -6.6966   -0.9092 H         1 <0>         0.4014
     39 H14        -3.6304   -5.3292   -0.8743 H         1 <0>         0.3926
@<TRIPOS>BOND
     1    1    2 1
     2    1   26 1
     3    1   27 1
     4    1   28 1
     5    2    7 ar
     6    2    3 ar
     7    3    4 ar
     8    3   29 1
     9    4    5 ar
    10    4   30 1
    11    5    6 ar
    12    5    8 1
    13    6    7 ar
    14    6   31 1
    15    7   32 1
    16    8   22 2
    17    8    9 1
    18    9   14 ar
    19    9   10 ar
    20   10   11 ar
    21   10   33 1
    22   11   12 ar
    23   11   25 1
    24   12   13 ar
    25   12   24 1
    26   13   14 ar
    27   13   34 1
    28   14   15 1
    29   15   16 1
    30   16   22 1
    31   16   17 2
    32   17   18 1
    33   17   35 1
    34   18   19 2
    35   18   20 1
    36   20   21 2
    37   20   23 1
    38   21   22 1
    39   21   36 1
    40   23   37 1
    41   24   38 1
    42   25   39 1
@<TRIPOS>MOLECULE
ZINC34958577
   27    28     0     0     0
SMALL
USER_CHARGES

@<TRIPOS>ATOM
      1 C1          0.0651    1.2434   -0.6203 C.ar      1 <0>        -0.1242
      2 C2          1.2502    1.9556   -0.6177 C.ar      1 <0>        -0.0770
      3 C3          2.3816    1.4172   -0.0242 C.ar      1 <0>         0.0840
      4 C4          2.3202    0.1562    0.5696 C.ar      1 <0>         0.2013
      5 C5          1.1279   -0.5516    0.5629 C.ar      1 <0>        -0.1517
      6 C6          0.0037   -0.0069   -0.0317 C.ar      1 <0>        -0.0549
      7 Br1        -1.6213   -0.9739   -0.0392 Br        1 <0>        -0.0472
      8 N1          3.4584   -0.3926    1.1698 N.pl3     1 <0>        -0.8750
      9 N2          3.5834    2.1374   -0.0211 N.am      1 <0>        -0.6591
     10 C7          3.5638    3.4817   -0.1159 C.2       1 <0>         0.5674
     11 O1          2.5036    4.0765   -0.1028 O.2       1 <0>        -0.5024
     12 C8          4.8313    4.2327   -0.2358 C.ar      1 <0>        -0.1846
     13 C9          4.8247    5.6298   -0.3293 C.ar      1 <0>         0.0169
     14 C10         6.0390    6.2854   -0.4399 C.ar      1 <0>        -0.1551
     15 C11         7.2092    5.5457   -0.4545 C.ar      1 <0>         0.1617
     16 N3          7.1838    4.2298   -0.3652 N.ar      1 <0>        -0.4719
     17 C12         6.0546    3.5617   -0.2520 C.ar      1 <0>         0.1492
     18 Br2         6.0986    8.1710   -0.5704 Br        1 <0>        -0.0123
     19 H1         -0.8163    1.6663   -1.0792 H         1 <0>         0.1359
     20 H2          1.2947    2.9314   -1.0785 H         1 <0>         0.1545
     21 H3          1.0768   -1.5280    1.0216 H         1 <0>         0.1370
     22 H4          4.2919    0.1036    1.1734 H         1 <0>         0.3941
     23 H5          3.4142   -1.2695    1.5822 H         1 <0>         0.4062
     24 H6          4.4296    1.6685    0.0493 H         1 <0>         0.4055
     25 H7          3.8964    6.1816   -0.3157 H         1 <0>         0.1619
     26 H8          8.1581    6.0542   -0.5407 H         1 <0>         0.1754
     27 H9          6.0753    2.4846   -0.1759 H         1 <0>         0.1643
@<TRIPOS>BOND
     1    1    6 ar
     2    1    2 ar
     3    1   19 1
     4    2    3 ar
     5    2   20 1
     6    3    4 ar
     7    3    9 1
     8    4    5 ar
     9    4    8 1
    10    5    6 ar
    11    5   21 1
    12    6    7 1
    13    8   22 1
    14    8   23 1
    15    9   10 am
    16    9   24 1
    17   10   11 2
    18   10   12 1
    19   12   17 ar
    20   12   13 ar
    21   13   14 ar
    22   13   25 1
    23   14   15 ar
    24   14   18 1
    25   15   16 ar
    26   15   26 1
    27   16   17 ar
    28   17   27 1
@<TRIPOS>MOLECULE
ZINC05977563
   42    45     0     0     0
SMALL
USER_CHARGES

@<TRIPOS>ATOM
      1 C1         -0.0187    1.5258    0.0104 C.3       1 <0>        -0.1212
      2 C2          0.0021   -0.0041    0.0020 C.3       1 <0>        -0.0080
      3 C3          0.7423   -0.6768   -1.1967 C.3       1 <0>        -0.1138
      4 C4          1.0041   -2.1234   -0.7139 C.3       1 <0>        -0.1119
      5 C5          0.3925   -2.1612    0.7222 C.3       1 <0>        -0.0298
      6 C6          0.7266   -0.7039    1.2099 C.3       1 <0>        -0.0223
      7 C7          2.2342   -0.4429    1.2138 C.3       1 <0>        -0.1415
      8 C8          0.0816   -0.3590    2.5537 C.3       1 <0>        -0.1409
      9 C9         -1.1153   -2.0269    0.4947 C.ar      1 <0>         0.1223
     10 C10        -1.3601   -0.6993    0.0693 C.ar      1 <0>         0.1336
     11 N1         -2.5690   -0.2829   -0.2025 N.ar      1 <0>        -0.4078
     12 C11        -3.6040   -1.1193   -0.0513 C.ar      1 <0>         0.0943
     13 C12        -4.9170   -0.7039   -0.3332 C.ar      1 <0>        -0.0553
     14 C13        -5.9505   -1.5746   -0.1683 C.ar      1 <0>        -0.0167
     15 C14        -5.7259   -2.8791    0.2771 C.ar      1 <0>        -0.0174
     16 C15        -4.4672   -3.3156    0.5583 C.ar      1 <0>        -0.0554
     17 C16        -3.3758   -2.4440    0.4001 C.ar      1 <0>         0.0761
     18 N2         -2.1004   -2.8743    0.6373 N.ar      1 <0>        -0.4107
     19 Cl1        -7.0705   -3.9591    0.4756 Cl        1 <0>        -0.0280
     20 Cl2        -7.5702   -1.0564   -0.5172 Cl        1 <0>        -0.0272
     21 C17         0.8492   -3.2898    1.6103 C.2       1 <0>         0.5541
     22 O1          1.4256   -3.0485    2.6497 O.2       1 <0>        -0.5091
     23 N3          0.6170   -4.5675    1.2494 N.am      1 <0>        -0.5658
     24 N4          1.0310   -5.5905    2.0544 N.3       1 <0>        -0.5992
     25 H1          1.0039    1.9031    0.0027 H         1 <0>         0.0738
     26 H2         -0.5459    1.8868   -0.8726 H         1 <0>         0.0714
     27 H3         -0.5289    1.8773    0.9072 H         1 <0>         0.0669
     28 H4          0.1090   -0.6790   -2.0839 H         1 <0>         0.0774
     29 H5          1.6835   -0.1657   -1.3996 H         1 <0>         0.0974
     30 H6          0.4999   -2.8396   -1.3627 H         1 <0>         0.0780
     31 H7          2.0745   -2.3264   -0.6786 H         1 <0>         0.0983
     32 H8          2.4171    0.6292    1.2862 H         1 <0>         0.0698
     33 H9          2.6880   -0.9473    2.0669 H         1 <0>         0.0776
     34 H10         2.6715   -0.8247    0.2913 H         1 <0>         0.0669
     35 H11        -0.9591   -0.6831    2.5511 H         1 <0>         0.0429
     36 H12         0.6182   -0.8666    3.3552 H         1 <0>         0.0808
     37 H13         0.1262    0.7185    2.7122 H         1 <0>         0.0702
     38 H14        -5.1051    0.3019   -0.6788 H         1 <0>         0.1628
     39 H15        -4.3080   -4.3273    0.9012 H         1 <0>         0.1591
     40 H16         0.1560   -4.7605    0.4181 H         1 <0>         0.4018
     41 H17         0.6523   -5.4946    2.9847 H         1 <0>         0.3475
     42 H18         0.7884   -6.4851    1.6557 H         1 <0>         0.3593
@<TRIPOS>BOND
     1    1    2 1
     2    1   25 1
     3    1   26 1
     4    1   27 1
     5    2    6 1
     6    2   10 1
     7    2    3 1
     8    3    4 1
     9    3   28 1
    10    3   29 1
    11    4    5 1
    12    4   30 1
    13    4   31 1
    14    5    6 1
    15    5    9 1
    16    5   21 1
    17    6    7 1
    18    6    8 1
    19    7   32 1
    20    7   33 1
    21    7   34 1
    22    8   35 1
    23    8   36 1
    24    8   37 1
    25    9   18 ar
    26    9   10 ar
    27   10   11 ar
    28   11   12 ar
    29   12   17 ar
    30   12   13 ar
    31   13   14 ar
    32   13   38 1
    33   14   15 ar
    34   14   20 1
    35   15   16 ar
    36   15   19 1
    37   16   17 ar
    38   16   39 1
    39   17   18 ar
    40   21   22 2
    41   21   23 am
    42   23   24 1
    43   23   40 1
    44   24   41 1
    45   24   42 1
@<TRIPOS>MOLECULE
ZINC50122098
   41    43     0     0     0
SMALL
NO_CHARGES

@<TRIPOS>ATOM
      1 C1         -0.0187    1.5258    0.0104 C.3       1 <0>        -0.1612
      2 C2          0.0021   -0.0041    0.0020 C.3       1 <0>         0.1301
      3 C3          0.7421   -0.5109    1.2415 C.3       1 <0>        -0.1602
      4 N1         -1.3723   -0.5112    0.0124 N.pl3     1 <0>        -0.3448
      5 C4         -2.2913   -0.2616    0.9922 C.cat     1 <0>        -0.0067
      6 N2         -3.4305   -0.8179    0.7761 N.pl3     1 <0>        -0.6724
      7 C5         -3.3477   -1.5555   -0.4940 C.3       1 <0>         0.2848
      8 C6         -1.9287   -1.3047   -0.9677 C.cat     1 <0>        -0.0391
      9 N3         -1.3665   -1.7397   -2.0470 N.pl3     1 <0>        -0.8266
     10 C7         -4.3372   -1.0072   -1.4897 C.ar      1 <0>        -0.0864
     11 C8         -5.0220   -1.8696   -2.3276 C.ar      1 <0>        -0.1087
     12 C9         -5.9309   -1.3625   -3.2406 C.ar      1 <0>         0.0774
     13 C10        -6.1531    0.0050   -3.3144 C.ar      1 <0>         0.0668
     14 C11        -5.4664    0.8660   -2.4743 C.ar      1 <0>        -0.0367
     15 C12        -4.5618    0.3548   -1.5588 C.ar      1 <0>        -0.0786
     16 Cl1        -5.7426    2.5775   -2.5648 Cl        1 <0>        -0.0540
     17 O1         -7.0517    0.4946   -4.2177 O.3       1 <0>        -0.3093
     18 C13        -6.6834    0.3739   -5.5933 C.3       1 <0>         0.0600
     19 C14        -7.0566   -0.9978   -6.1332 C.3       1 <0>        -0.1882
     20 C15        -6.2785   -2.1167   -5.4587 C.3       1 <0>         0.0600
     21 O2         -6.6133   -2.2024   -4.0721 O.3       1 <0>        -0.3156
     22 H1          1.0039    1.9031    0.0027 H         1 <0>         0.0729
     23 H2         -0.5459    1.8868   -0.8726 H         1 <0>         0.0632
     24 H3         -0.5289    1.8773    0.9072 H         1 <0>         0.0669
     25 H4          0.5123   -0.3556   -0.8948 H         1 <0>         0.0912
     26 H5          0.2319   -0.1594    2.1383 H         1 <0>         0.0667
     27 H6          0.7568   -1.6008    1.2356 H         1 <0>         0.0640
     28 H7          1.7647   -0.1336    1.2338 H         1 <0>         0.0727
     29 H8         -2.0816    0.3426    1.8624 H         1 <0>         0.1694
     30 H9         -0.4439   -1.5106   -2.2395 H         1 <0>         0.3841
     31 H10        -3.5203   -2.6192   -0.3307 H         1 <0>         0.0514
     32 H11        -4.8479   -2.9339   -2.2698 H         1 <0>         0.1381
     33 H12        -4.0274    1.0227   -0.8995 H         1 <0>         0.1386
     34 H13        -7.2002    1.1398   -6.1716 H         1 <0>         0.1059
     35 H14        -5.6073    0.5171   -5.6905 H         1 <0>         0.0567
     36 H15        -8.1221   -1.1624   -5.9731 H         1 <0>         0.0853
     37 H16        -6.8543   -1.0228   -7.2040 H         1 <0>         0.0920
     38 H17        -6.5168   -3.0629   -5.9445 H         1 <0>         0.1062
     39 H18        -5.2107   -1.9219   -5.5586 H         1 <0>         0.0577
     40 H19        -1.8673   -2.2954   -2.6645 H         1 <0>         0.4020
     41 H20        -4.2095   -0.7612    1.3513 H         1 <0>         0.4244
@<TRIPOS>BOND
     1    1    2 1
     2    1   22 1
     3    1   23 1
     4    1   24 1
     5    2    3 1
     6    2   25 1
     7    2    4 1
     8    3   26 1
     9    3   27 1
    10    3   28 1
    11    4    5 1
    12    4    8 1
    13    5    6 2
    14    5   29 1
    15    6    7 1
    16    6   41 1
    17    7   10 1
    18    7   31 1
    19    7    8 1
    20    8    9 2
    21    9   30 1
    22    9   40 1
    23   10   15 ar
    24   10   11 ar
    25   11   12 ar
    26   11   32 1
    27   12   21 1
    28   12   13 ar
    29   13   14 ar
    30   13   17 1
    31   14   15 ar
    32   14   16 1
    33   15   33 1
    34   17   18 1
    35   18   19 1
    36   18   34 1
    37   18   35 1
    38   19   20 1
    39   19   36 1
    40   19   37 1
    41   20   21 1
    42   20   38 1
    43   20   39 1
@<TRIPOS>MOLECULE
ZINC56977226
   50    53     0     0     0
SMALL
USER_CHARGES

@<TRIPOS>ATOM
      1 C1          0.3149    1.5849   -0.0511 C.3       1 <0>        -0.1480
      2 C2          0.2988    0.0550   -0.0654 C.3       1 <0>        -0.0929
      3 H1         -0.7317   -0.2975   -0.1081 H         1 <0>         0.0734
      4 C3          1.0638   -0.4526   -1.2910 C.3       1 <0>        -0.1091
      5 C4          0.8387   -1.9609   -1.4435 C.3       1 <0>        -0.0597
      6 C5          1.1165   -2.6260   -0.1159 C.2       1 <0>         0.0726
      7 C6          1.1745   -1.9616    1.0580 C.2       1 <0>        -0.1629
      8 C7          1.4614   -2.9414    2.0859 C.ar      1 <0>        -0.1106
      9 C8          1.6331   -2.8413    3.4695 C.ar      1 <0>        -0.0295
     10 C9          1.9038   -4.0122    4.1587 C.ar      1 <0>        -0.1643
     11 C10         2.0028   -5.2335    3.5224 C.ar      1 <0>        -0.0595
     12 C11         1.8359   -5.3656    2.1391 C.ar      1 <0>        -0.1616
     13 C12         1.5597   -4.1889    1.4186 C.ar      1 <0>         0.1583
     14 N1          1.3458   -3.9610    0.0957 N.pl3     1 <0>        -0.5684
     15 H2          1.3538   -4.6415   -0.5955 H         1 <0>         0.4264
     16 C13         1.9444   -6.6751    1.4688 C.2       1 <0>         0.5662
     17 O1          1.7940   -6.7561    0.2649 O.2       1 <0>        -0.5354
     18 N2          2.2103   -7.7817    2.1908 N.am      1 <0>        -0.7198
     19 C14         2.3180   -9.0822    1.5250 C.3       1 <0>         0.1342
     20 H3          1.5147   -9.1881    0.7959 H         1 <0>         0.1201
     21 C15         2.2201  -10.2016    2.5643 C.3       1 <0>        -0.1252
     22 C16         2.8722   -9.7822    3.8693 C.3       1 <0>        -0.1271
     23 C17         4.3761   -9.6013    3.7724 C.3       1 <0>        -0.1457
     24 C18         4.7255   -8.4109    2.8772 C.3       1 <0>         0.0912
     25 N3          4.7794   -8.8719    1.4804 N.am      1 <0>        -0.7206
     26 C19         3.6570   -9.1863    0.8255 C.2       1 <0>         0.5137
     27 O2          3.7093   -9.5605   -0.3269 O.2       1 <0>        -0.5340
     28 C20         0.9689   -0.4757    1.2075 C.3       1 <0>        -0.0386
     29 H4          1.3456    1.9370   -0.0084 H         1 <0>         0.0561
     30 H5         -0.1606    1.9617   -0.9566 H         1 <0>         0.0564
     31 H6         -0.2288    1.9458    0.8220 H         1 <0>         0.0568
     32 H7          0.7037    0.0607   -2.1826 H         1 <0>         0.0743
     33 H8          2.1281   -0.2551   -1.1627 H         1 <0>         0.0690
     34 H9         -0.1938   -2.1489   -1.7380 H         1 <0>         0.0836
     35 H10         1.5158   -2.3573   -2.2002 H         1 <0>         0.0791
     36 H11         1.5584   -1.8921    3.9793 H         1 <0>         0.1360
     37 H12         2.0423   -3.9682    5.2289 H         1 <0>         0.1275
     38 H13         2.2160   -6.1141    4.1102 H         1 <0>         0.1201
     39 H14         2.3303   -7.7170    3.1511 H         1 <0>         0.4060
     40 H15         1.1703  -10.4322    2.7456 H         1 <0>         0.0881
     41 H16         2.7213  -11.0910    2.1822 H         1 <0>         0.0855
     42 H17         2.4286   -8.8407    4.1931 H         1 <0>         0.0616
     43 H18         2.6609  -10.5404    4.6233 H         1 <0>         0.0797
     44 H19         4.7815   -9.4309    4.7698 H         1 <0>         0.0830
     45 H20         4.8197  -10.5055    3.3557 H         1 <0>         0.0755
     46 H21         3.9615   -7.6402    2.9788 H         1 <0>         0.0845
     47 H22         5.6959   -8.0078    3.1670 H         1 <0>         0.0886
     48 H23         5.6354   -8.9460    1.0301 H         1 <0>         0.4007
     49 H24         1.9325    0.0147    1.3455 H         1 <0>         0.0724
     50 H25         0.3287   -0.2790    2.0674 H         1 <0>         0.0723
@<TRIPOS>BOND
     1    1    2 1
     2    1   29 1
     3    1   30 1
     4    1   31 1
     5    2    3 1
     6    2   28 1
     7    2    4 1
     8    4    5 1
     9    4   32 1
    10    4   33 1
    11    5    6 1
    12    5   34 1
    13    5   35 1
    14    6   14 1
    15    6    7 2
    16    7    8 1
    17    7   28 1
    18    8   13 ar
    19    8    9 ar
    20    9   10 ar
    21    9   36 1
    22   10   11 ar
    23   10   37 1
    24   11   12 ar
    25   11   38 1
    26   12   13 ar
    27   12   16 1
    28   13   14 1
    29   14   15 1
    30   16   17 2
    31   16   18 am
    32   18   19 1
    33   18   39 1
    34   19   20 1
    35   19   26 1
    36   19   21 1
    37   21   22 1
    38   21   40 1
    39   21   41 1
    40   22   23 1
    41   22   42 1
    42   22   43 1
    43   23   24 1
    44   23   44 1
    45   23   45 1
    46   24   25 1
    47   24   46 1
    48   24   47 1
    49   25   26 am
    50   25   48 1
    51   26   27 2
    52   28   49 1
    53   28   50 1
@<TRIPOS>MOLECULE
ZINC04991218
   53    54     0     0     0
SMALL
USER_CHARGES
[1-methyl-2-(3,3,5,5-tetramethyl-1,2,4,6,7,8-hexahydronaphthalen-2-yl)-ethylidene]aminourea
@<TRIPOS>ATOM
      1 C1         -2.1439    1.1129   -1.4988 C.3       1 <0>        -0.1626
      2 C2         -0.7416    1.5850   -1.2129 C.2       1 <0>         0.1160
      3 N1         -0.1696    2.4101   -2.0070 N.2       1 <0>        -0.2621
      4 N2         -0.8472    2.8742   -3.1421 N.am      1 <0>        -0.5928
      5 C3         -0.2449    3.7429   -3.9782 C.2       1 <0>         0.7337
      6 O1         -0.8330    4.1457   -4.9633 O.2       1 <0>        -0.5890
      7 N3          1.0092    4.1651   -3.7225 N.am      1 <0>        -0.8499
      8 C4         -0.0127    1.0858    0.0080 C.3       1 <0>        -0.0631
      9 C5         -0.7288    1.5792    1.2668 C.3       1 <0>        -0.0689
     10 H1         -1.7804    1.2947    1.2300 H         1 <0>         0.0781
     11 C6         -0.6045    3.0940    1.3729 C.3       1 <0>        -0.0767
     12 C7         -1.0895    3.5984    2.7166 C.2       1 <0>        -0.1169
     13 C8         -1.2349    2.8245    3.7492 C.2       1 <0>        -0.1000
     14 C9         -0.9328    1.3404    3.7134 C.3       1 <0>        -0.0786
     15 C10        -0.0682    0.9742    2.5137 C.3       1 <0>        -0.0554
     16 C11         0.0093   -0.5474    2.3742 C.3       1 <0>        -0.1473
     17 C12         1.3377    1.5519    2.6890 C.3       1 <0>        -0.1451
     18 C13        -1.7364    3.3264    5.0878 C.3       1 <0>        -0.0269
     19 C14        -1.6103    4.8404    5.2007 C.3       1 <0>        -0.1099
     20 C15        -2.2529    5.4528    3.9482 C.3       1 <0>        -0.1227
     21 C16        -1.3766    5.0854    2.7574 C.3       1 <0>        -0.0839
     22 C17        -3.2063    2.9340    5.2498 C.3       1 <0>        -0.1397
     23 C18        -0.9203    2.6723    6.2044 C.3       1 <0>        -0.1439
     24 H2         -2.8577    1.7848   -1.0222 H         1 <0>         0.0862
     25 H3         -2.3130    1.1077   -2.5756 H         1 <0>         0.0678
     26 H4         -2.2752    0.1049   -1.1055 H         1 <0>         0.0878
     27 H5         -1.7498    2.5703   -3.3261 H         1 <0>         0.4009
     28 H6          1.4784    3.8437   -2.9366 H         1 <0>         0.4081
     29 H7          1.4427    4.7903   -4.3243 H         1 <0>         0.4142
     30 H8          0.0021   -0.0041    0.0020 H         1 <0>         0.0959
     31 H9          1.0099    1.4631    0.0003 H         1 <0>         0.0878
     32 H10         0.4404    3.3755    1.2428 H         1 <0>         0.0757
     33 H11        -1.1976    3.5561    0.5837 H         1 <0>         0.0626
     34 H12        -1.8705    0.7873    3.6586 H         1 <0>         0.0695
     35 H13        -0.4093    1.0614    4.6279 H         1 <0>         0.0776
     36 H14         0.6003   -0.8020    1.4944 H         1 <0>         0.0611
     37 H15         0.4790   -0.9703    3.2622 H         1 <0>         0.0566
     38 H16        -0.9963   -0.9541    2.2665 H         1 <0>         0.0562
     39 H17         1.2740    2.6339    2.8045 H         1 <0>         0.0624
     40 H18         1.8007    1.1185    3.5754 H         1 <0>         0.0533
     41 H19         1.9398    1.3150    1.8118 H         1 <0>         0.0558
     42 H20        -0.5584    5.1212    5.2519 H         1 <0>         0.0642
     43 H21        -2.1305    5.1905    6.0923 H         1 <0>         0.0646
     44 H22        -2.3031    6.5368    4.0503 H         1 <0>         0.0637
     45 H23        -3.2552    5.0474    3.8093 H         1 <0>         0.0671
     46 H24        -0.4341    5.6283    2.8279 H         1 <0>         0.0681
     47 H25        -1.8864    5.3750    1.8385 H         1 <0>         0.0644
     48 H26        -3.2996    1.8488    5.2065 H         1 <0>         0.0545
     49 H27        -3.5741    3.2921    6.2114 H         1 <0>         0.0553
     50 H28        -3.7925    3.3814    4.4471 H         1 <0>         0.0565
     51 H29         0.1316    2.9322    6.0857 H         1 <0>         0.0552
     52 H30        -1.2758    3.0291    7.1711 H         1 <0>         0.0546
     53 H31        -1.0352    1.5897    6.1520 H         1 <0>         0.0600
@<TRIPOS>BOND
     1    1    2 1
     2    1   24 1
     3    1   25 1
     4    1   26 1
     5    2    3 2
     6    2    8 1
     7    3    4 1
     8    4    5 am
     9    4   27 1
    10    5    6 2
    11    5    7 am
    12    7   28 1
    13    7   29 1
    14    8    9 1
    15    8   30 1
    16    8   31 1
    17    9   10 1
    18    9   15 1
    19    9   11 1
    20   11   12 1
    21   11   32 1
    22   11   33 1
    23   12   21 1
    24   12   13 2
    25   13   14 1
    26   13   18 1
    27   14   15 1
    28   14   34 1
    29   14   35 1
    30   15   16 1
    31   15   17 1
    32   16   36 1
    33   16   37 1
    34   16   38 1
    35   17   39 1
    36   17   40 1
    37   17   41 1
    38   18   19 1
    39   18   22 1
    40   18   23 1
    41   19   20 1
    42   19   42 1
    43   19   43 1
    44   20   21 1
    45   20   44 1
    46   20   45 1
    47   21   46 1
    48   21   47 1
    49   22   48 1
    50   22   49 1
    51   22   50 1
    52   23   51 1
    53   23   52 1
    54   23   53 1
@<TRIPOS>MOLECULE
ZINC20505709
   29    30     0     0     0
SMALL
USER_CHARGES
4-[[(4-bromo-2,6-dichloro-phenyl)amino]methyl]benzene-1,3-diol
@<TRIPOS>ATOM
      1 C1          5.2183    7.2661   -0.9468 C.ar      1 <0>        -0.2092
      2 C2          3.9777    6.6575   -0.9239 C.ar      1 <0>        -0.0182
      3 C3          3.8532    5.3247   -1.2658 C.ar      1 <0>        -0.1847
      4 C4          4.9750    4.5923   -1.6281 C.ar      1 <0>         0.2168
      5 C5          6.2196    5.2017   -1.6569 C.ar      1 <0>        -0.3185
      6 C6          6.3421    6.5395   -1.3134 C.ar      1 <0>         0.2017
      7 O1          7.5618    7.1383   -1.3353 O.3       1 <0>        -0.5078
      8 O2          4.8526    3.2800   -1.9592 O.3       1 <0>        -0.4918
      9 C7          2.4989    4.6641   -1.2392 C.3       1 <0>         0.1907
     10 N1          2.3560    3.8898    0.0009 N.pl3     1 <0>        -0.7864
     11 C8          1.0881    3.3051    0.0835 C.ar      1 <0>         0.2159
     12 C9          0.8926    2.0014   -0.3559 C.ar      1 <0>        -0.0358
     13 C10        -0.3616    1.4263   -0.2725 C.ar      1 <0>        -0.0766
     14 C11        -1.4229    2.1492    0.2425 C.ar      1 <0>        -0.0809
     15 C12        -1.2303    3.4455    0.6862 C.ar      1 <0>        -0.0758
     16 C13         0.0214    4.0264    0.6055 C.ar      1 <0>        -0.0370
     17 Cl1         0.2605    5.6552    1.1564 Cl        1 <0>        -0.0386
     18 Br1        -3.1386    1.3612    0.3475 Br        1 <0>        -0.0254
     19 Cl2         2.2222    1.0958   -1.0084 Cl        1 <0>        -0.0322
     20 H1          5.3132    8.3080   -0.6788 H         1 <0>         0.1283
     21 H2          3.1043    7.2246   -0.6379 H         1 <0>         0.1331
     22 H3          7.0932    4.6345   -1.9426 H         1 <0>         0.1286
     23 H4          8.4524    6.5618   -1.6260 H         1 <0>         0.4341
     24 H5          5.7420    2.6999   -2.2463 H         1 <0>         0.4291
     25 H6          1.7145    5.4340   -1.2832 H         1 <0>         0.0518
     26 H7          2.4018    3.9919   -2.1044 H         1 <0>         0.0553
     27 H8          3.1919    3.8337    0.7137 H         1 <0>         0.4372
     28 H9         -0.5142    0.4131   -0.6139 H         1 <0>         0.1478
     29 H10        -2.0598    4.0056    1.0918 H         1 <0>         0.1482
@<TRIPOS>BOND
     1    1    6 ar
     2    1    2 ar
     3    1   20 1
     4    2    3 ar
     5    2   21 1
     6    3    4 ar
     7    3    9 1
     8    4    5 ar
     9    4    8 1
    10    5    6 ar
    11    5   22 1
    12    6    7 1
    13    7   23 1
    14    8   24 1
    15    9   10 1
    16    9   25 1
    17    9   26 1
    18   10   11 1
    19   10   27 1
    20   11   16 ar
    21   11   12 ar
    22   12   13 ar
    23   12   19 1
    24   13   14 ar
    25   13   28 1
    26   14   15 ar
    27   14   18 1
    28   15   16 ar
    29   15   29 1
    30   16   17 1
@<TRIPOS>MOLECULE
ZINC37178211
   34    35     0     0     0
SMALL
USER_CHARGES

@<TRIPOS>ATOM
      1 C1         -0.0418    1.5252    0.0234 C.3       1 <0>        -0.1603
      2 C2          0.0021   -0.0041    0.0020 C.3       1 <0>         0.1935
      3 H1         -1.0124   -0.3957   -0.0721 H         1 <0>         0.0928
      4 C3          0.8071   -0.4670   -1.1849 C.ar      1 <0>        -0.1754
      5 C4          2.1583   -0.7190   -1.0480 C.ar      1 <0>        -0.0693
      6 C5          2.8977   -1.1432   -2.1365 C.ar      1 <0>        -0.1733
      7 C6          2.2876   -1.3172   -3.3655 C.ar      1 <0>        -0.0683
      8 C7          0.9372   -1.0675   -3.5092 C.ar      1 <0>        -0.1934
      9 C8          0.1901   -0.6461   -2.4162 C.ar      1 <0>         0.2307
     10 N1         -1.1771   -0.3977   -2.5568 N.pl3     1 <0>        -0.8763
     11 N2          0.6251   -0.4920    1.2349 N.am      1 <0>        -0.7181
     12 C9         -0.1275   -0.7003    2.3335 C.2       1 <0>         0.5604
     13 O1         -1.3231   -0.4832    2.3013 O.2       1 <0>        -0.5302
     14 C10         0.5011   -1.1925    3.5773 C.ar      1 <0>        -0.1213
     15 C11         1.8749   -1.4372    3.6191 C.ar      1 <0>        -0.0809
     16 C12         2.4555   -1.8965    4.7826 C.ar      1 <0>        -0.0971
     17 C13         1.6787   -2.1150    5.9080 C.ar      1 <0>        -0.0675
     18 C14         0.3155   -1.8741    5.8728 C.ar      1 <0>        -0.0971
     19 C15        -0.2758   -1.4092    4.7169 C.ar      1 <0>        -0.0524
     20 Br1         2.4828   -2.7455    7.4992 Br        1 <0>        -0.0384
     21 H2          0.9727    1.9168    0.0975 H         1 <0>         0.0619
     22 H3         -0.5053    1.8882   -0.8939 H         1 <0>         0.0682
     23 H4         -0.6241    1.8600    0.8818 H         1 <0>         0.0646
     24 H5          2.6378   -0.5841   -0.0897 H         1 <0>         0.1153
     25 H6          3.9542   -1.3389   -2.0270 H         1 <0>         0.1213
     26 H7          2.8682   -1.6483   -4.2139 H         1 <0>         0.1232
     27 H8          0.4615   -1.2031   -4.4693 H         1 <0>         0.1228
     28 H9         -1.6969   -0.0997   -1.7939 H         1 <0>         0.3992
     29 H10        -1.6069   -0.5232   -3.4173 H         1 <0>         0.4005
     30 H11         1.5791   -0.6652    1.2606 H         1 <0>         0.3998
     31 H12         2.4816   -1.2676    2.7419 H         1 <0>         0.1340
     32 H13         3.5181   -2.0866    4.8161 H         1 <0>         0.1414
     33 H14        -0.2851   -2.0467    6.7536 H         1 <0>         0.1424
     34 H15        -1.3383   -1.2175    4.6919 H         1 <0>         0.1472
@<TRIPOS>BOND
     1    1    2 1
     2    1   21 1
     3    1   22 1
     4    1   23 1
     5    2    3 1
     6    2    4 1
     7    2   11 1
     8    4    9 ar
     9    4    5 ar
    10    5    6 ar
    11    5   24 1
    12    6    7 ar
    13    6   25 1
    14    7    8 ar
    15    7   26 1
    16    8    9 ar
    17    8   27 1
    18    9   10 1
    19   10   28 1
    20   10   29 1
    21   11   12 am
    22   11   30 1
    23   12   13 2
    24   12   14 1
    25   14   19 ar
    26   14   15 ar
    27   15   16 ar
    28   15   31 1
    29   16   17 ar
    30   16   32 1
    31   17   18 ar
    32   17   20 1
    33   18   19 ar
    34   18   33 1
    35   19   34 1
@<TRIPOS>MOLECULE
ZINC40311576
   44    46     0     0     0
SMALL
USER_CHARGES

@<TRIPOS>ATOM
      1 C1         -0.0187    1.5258    0.0104 C.3       1 <0>        -0.1223
      2 C2          0.0021   -0.0041    0.0020 C.3       1 <0>        -0.0734
      3 C3          0.7443   -0.6691   -1.1972 C.3       1 <0>        -0.1124
      4 C4          1.0617   -2.1027   -0.7139 C.3       1 <0>        -0.1225
      5 C5          0.4813   -2.1688    0.7318 C.3       1 <0>        -0.0943
      6 H1          0.8820   -2.9559    1.3706 H         1 <0>         0.0981
      7 C6          0.7270   -0.6945    1.2108 C.3       1 <0>        -0.0642
      8 C7          0.0314   -0.4000    2.5413 C.3       1 <0>        -0.1561
      9 C8          2.2164   -0.3480    1.2605 C.3       1 <0>        -0.1383
     10 C9         -1.0651   -2.1745    0.5318 C.3       1 <0>        -0.1278
     11 C10        -1.3895   -0.7050    0.0620 C.3       1 <0>         0.1501
     12 H2         -1.8449   -0.7309   -0.9279 H         1 <0>         0.0931
     13 N1         -2.2675   -0.0167    1.0115 N.am      1 <0>        -0.7179
     14 C11        -3.6057   -0.1000    0.8742 C.2       1 <0>         0.5500
     15 O1         -4.0841   -0.7462   -0.0374 O.2       1 <0>        -0.5076
     16 C12        -4.4914    0.5944    1.8321 C.ar      1 <0>        -0.0802
     17 C13        -3.9448    1.3417    2.8762 C.ar      1 <0>        -0.1597
     18 C14        -4.7818    1.9904    3.7701 C.ar      1 <0>         0.2148
     19 C15        -6.1615    1.8958    3.6256 C.ar      1 <0>        -0.1608
     20 C16        -6.7039    1.1559    2.5927 C.ar      1 <0>        -0.0691
     21 C17        -5.8787    0.5098    1.6922 C.ar      1 <0>        -0.0424
     22 Cl1        -6.5657   -0.4127    0.3919 Cl        1 <0>        -0.0379
     23 N2         -4.2388    2.7397    4.8177 N.pl3     1 <0>        -0.8735
     24 H3          1.0039    1.9031    0.0027 H         1 <0>         0.0636
     25 H4         -0.5459    1.8868   -0.8726 H         1 <0>         0.0610
     26 H5         -0.5289    1.8773    0.9072 H         1 <0>         0.0549
     27 H6          0.0986   -0.6982   -2.0748 H         1 <0>         0.0668
     28 H7          1.6654   -0.1305   -1.4198 H         1 <0>         0.0702
     29 H8          0.5719   -2.8366   -1.3539 H         1 <0>         0.0665
     30 H9          2.1388   -2.2689   -0.6989 H         1 <0>         0.0661
     31 H10        -0.9940   -0.7680    2.5045 H         1 <0>         0.0695
     32 H11         0.5672   -0.8977    3.3495 H         1 <0>         0.0599
     33 H12         0.0252    0.6756    2.7178 H         1 <0>         0.0547
     34 H13         2.3353    0.7305    1.3637 H         1 <0>         0.0554
     35 H14         2.6774   -0.8476    2.1126 H         1 <0>         0.0547
     36 H15         2.6976   -0.6802    0.3406 H         1 <0>         0.0624
     37 H16        -1.3483   -2.9115   -0.2197 H         1 <0>         0.0747
     38 H17        -1.5696   -2.3801    1.4759 H         1 <0>         0.0676
     39 H18        -1.8857    0.4990    1.7390 H         1 <0>         0.3996
     40 H19        -2.8730    1.4140    2.9874 H         1 <0>         0.1281
     41 H20        -6.8115    2.4024    4.3237 H         1 <0>         0.1348
     42 H21        -7.7763    1.0860    2.4860 H         1 <0>         0.1403
     43 H22        -3.2763    2.8055    4.9189 H         1 <0>         0.4009
     44 H23        -4.8244    3.1938    5.4435 H         1 <0>         0.4026
@<TRIPOS>BOND
     1    1    2 1
     2    1   24 1
     3    1   25 1
     4    1   26 1
     5    2    7 1
     6    2   11 1
     7    2    3 1
     8    3    4 1
     9    3   27 1
    10    3   28 1
    11    4    5 1
    12    4   29 1
    13    4   30 1
    14    5    6 1
    15    5    7 1
    16    5   10 1
    17    7    8 1
    18    7    9 1
    19    8   31 1
    20    8   32 1
    21    8   33 1
    22    9   34 1
    23    9   35 1
    24    9   36 1
    25   10   11 1
    26   10   37 1
    27   10   38 1
    28   11   12 1
    29   11   13 1
    30   13   14 am
    31   13   39 1
    32   14   15 2
    33   14   16 1
    34   16   21 ar
    35   16   17 ar
    36   17   18 ar
    37   17   40 1
    38   18   19 ar
    39   18   23 1
    40   19   20 ar
    41   19   41 1
    42   20   21 ar
    43   20   42 1
    44   21   22 1
    45   23   43 1
    46   23   44 1
@<TRIPOS>MOLECULE
ZINC50995186
   41    42     0     0     0
SMALL
NO_CHARGES

@<TRIPOS>ATOM
      1 C1         -0.0272    2.6948    1.1677 C.3       1 <0>        -0.1552
      2 C2          0.2723    1.2681    0.7033 C.3       1 <0>        -0.0368
      3 C3          1.0922    0.5605    1.7511 C.cat     1 <0>         0.0203
      4 N1          2.3620    0.7183    1.8803 N.pl3     1 <0>        -0.6689
      5 C4          2.8179   -0.1236    2.9972 C.3       1 <0>         0.2833
      6 C5          1.5499   -0.7985    3.4845 C.cat     1 <0>        -0.0244
      7 N2          0.5590   -0.3077    2.6615 N.pl3     1 <0>        -0.3351
      8 C6         -0.8585   -0.6673    2.7480 C.3       1 <0>         0.1597
      9 C7         -1.2885   -1.3611    1.4539 C.3       1 <0>        -0.1681
     10 C8         -1.0732   -1.6146    3.9301 C.3       1 <0>        -0.1732
     11 C9         -1.6943    0.5982    2.9502 C.3       1 <0>        -0.1680
     12 N3          1.4256   -1.6412    4.4564 N.pl3     1 <0>        -0.8378
     13 C10         3.8114   -1.1492    2.5154 C.ar      1 <0>        -0.0968
     14 C11         3.6341   -1.7598    1.2876 C.ar      1 <0>        -0.0791
     15 C12         4.5450   -2.7005    0.8451 C.ar      1 <0>        -0.1182
     16 C13         5.6338   -3.0313    1.6301 C.ar      1 <0>        -0.0981
     17 C14         5.8118   -2.4205    2.8581 C.ar      1 <0>        -0.0899
     18 C15         4.9026   -1.4751    3.2982 C.ar      1 <0>        -0.0868
     19 Br1         7.3006   -2.8730    3.9325 Br        1 <0>        -0.0572
     20 H1          0.9088    3.2141    1.3733 H         1 <0>         0.0542
     21 H2         -0.5724    3.2243    0.3863 H         1 <0>         0.0520
     22 H3         -0.6315    2.6625    2.0742 H         1 <0>         0.0575
     23 H4         -0.6641    0.7314    0.5510 H         1 <0>         0.0758
     24 H5          0.8291    1.3002   -0.2332 H         1 <0>         0.0661
     25 H6         -0.8067   -2.3366    1.3872 H         1 <0>         0.0629
     26 H7         -2.3709   -1.4897    1.4529 H         1 <0>         0.0733
     27 H8         -0.9943   -0.7514    0.5997 H         1 <0>         0.0768
     28 H9         -0.6265   -1.1841    4.8264 H         1 <0>         0.0847
     29 H10        -2.1415   -1.7595    4.0903 H         1 <0>         0.0787
     30 H11        -0.6044   -2.5750    3.7159 H         1 <0>         0.0728
     31 H12        -1.6483    1.2116    2.0504 H         1 <0>         0.0796
     32 H13        -2.7297    0.3218    3.1490 H         1 <0>         0.0711
     33 H14        -1.3002    1.1627    3.7953 H         1 <0>         0.0652
     34 H15         2.1817   -1.8304    5.0339 H         1 <0>         0.3935
     35 H16         3.2546    0.4898    3.7853 H         1 <0>         0.0449
     36 H17         2.7834   -1.5018    0.6743 H         1 <0>         0.1242
     37 H18         4.4059   -3.1774   -0.1138 H         1 <0>         0.1263
     38 H19         6.3451   -3.7669    1.2846 H         1 <0>         0.1279
     39 H20         5.0433   -0.9951    4.2554 H         1 <0>         0.1279
     40 H21         0.5764   -2.0845    4.6083 H         1 <0>         0.3938
     41 H22         2.9222    1.2928    1.3354 H         1 <0>         0.4208
@<TRIPOS>BOND
     1    1    2 1
     2    1   20 1
     3    1   21 1
     4    1   22 1
     5    2   23 1
     6    2   24 1
     7    2    3 1
     8    3    4 2
     9    3    7 1
    10    4    5 1
    11    4   41 1
    12    5   13 1
    13    5   35 1
    14    5    6 1
    15    6    7 1
    16    6   12 2
    17    7    8 1
    18    8    9 1
    19    8   10 1
    20    8   11 1
    21    9   25 1
    22    9   26 1
    23    9   27 1
    24   10   28 1
    25   10   29 1
    26   10   30 1
    27   11   31 1
    28   11   32 1
    29   11   33 1
    30   12   34 1
    31   12   40 1
    32   13   18 ar
    33   13   14 ar
    34   14   15 ar
    35   14   36 1
    36   15   16 ar
    37   15   37 1
    38   16   17 ar
    39   16   38 1
    40   17   18 ar
    41   17   19 1
    42   18   39 1
@<TRIPOS>MOLECULE
ZINC02387613
   41    44     0     0     0
SMALL
USER_CHARGES
(4-chlorophenyl)-hydrazino-methyl-BLAHone
@<TRIPOS>ATOM
      1 C1          0.4400    3.6937    0.3880 C.3       1 <0>        -0.1472
      2 C2         -0.4145    3.5554    1.6496 C.3       1 <0>        -0.0939
      3 H1         -0.5790    4.5408    2.0856 H         1 <0>         0.0728
      4 C3         -1.7641    2.9303    1.2843 C.3       1 <0>        -0.1095
      5 C4         -2.6989    3.0373    2.4977 C.3       1 <0>        -0.0333
      6 C5         -1.9559    2.5717    3.7117 C.2       1 <0>        -0.1932
      7 C6         -0.6214    2.3910    3.8363 C.2       1 <0>        -0.0323
      8 C7         -0.1436    1.9279    5.1288 C.2       1 <0>        -0.3026
      9 C8         -1.1311    1.7170    6.1179 C.2       1 <0>         0.1439
     10 S1         -2.6340    2.1387    5.2942 S.3       1 <0>         0.1438
     11 N1         -0.8691    1.2973    7.3498 N.2       1 <0>        -0.5071
     12 C9          0.3993    1.0651    7.6557 C.2       1 <0>         0.6459
     13 N2          1.4154    1.2413    6.7651 N.am      1 <0>        -0.5036
     14 C10         1.2167    1.6670    5.4954 C.2       1 <0>         0.5829
     15 O1          2.1386    1.8193    4.7123 O.2       1 <0>        -0.4999
     16 C11         2.7256    0.9698    7.1825 C.ar      1 <0>         0.0820
     17 C12         3.5006    1.9779    7.7401 C.ar      1 <0>        -0.0854
     18 C13         4.7897    1.7067    8.1550 C.ar      1 <0>        -0.0996
     19 C14         5.3125    0.4341    8.0062 C.ar      1 <0>        -0.0168
     20 C15         4.5440   -0.5709    7.4454 C.ar      1 <0>        -0.0983
     21 C16         3.2525   -0.3060    7.0338 C.ar      1 <0>        -0.0792
     22 Cl1         6.9353    0.0980    8.5231 Cl        1 <0>        -0.0507
     23 N3          0.7021    0.6296    8.9222 N.pl3     1 <0>        -0.5372
     24 N4         -0.3011    0.3441    9.8043 N.3       1 <0>        -0.5816
     25 C17         0.3117    2.6675    2.6603 C.3       1 <0>        -0.0535
     26 H2          0.6073    2.7085   -0.0473 H         1 <0>         0.0557
     27 H3          1.3983    4.1445    0.6459 H         1 <0>         0.0558
     28 H4         -0.0769    4.3266   -0.3333 H         1 <0>         0.0569
     29 H5         -2.1985    3.4655    0.4399 H         1 <0>         0.0745
     30 H6         -1.6227    1.8818    1.0223 H         1 <0>         0.0686
     31 H7         -3.5750    2.4081    2.3407 H         1 <0>         0.0809
     32 H8         -3.0113    4.0726    2.6342 H         1 <0>         0.0819
     33 H9          3.0944    2.9722    7.8528 H         1 <0>         0.1393
     34 H10         5.3915    2.4895    8.5926 H         1 <0>         0.1473
     35 H11         4.9543   -1.5632    7.3299 H         1 <0>         0.1479
     36 H12         2.6529   -1.0908    6.5969 H         1 <0>         0.1411
     37 H13         1.6283    0.5248    9.1905 H         1 <0>         0.4168
     38 H14         0.0726    0.0373   10.6899 H         1 <0>         0.3671
     39 H15        -0.9128    1.1374    9.9253 H         1 <0>         0.3588
     40 H16         0.5897    1.7264    2.1859 H         1 <0>         0.0775
     41 H17         1.2070    3.1770    3.0167 H         1 <0>         0.0837
@<TRIPOS>BOND
     1    1    2 1
     2    1   26 1
     3    1   27 1
     4    1   28 1
     5    2    3 1
     6    2   25 1
     7    2    4 1
     8    4    5 1
     9    4   29 1
    10    4   30 1
    11    5    6 1
    12    5   31 1
    13    5   32 1
    14    6   10 1
    15    6    7 2
    16    7    8 1
    17    7   25 1
    18    8   14 1
    19    8    9 2
    20    9   10 1
    21    9   11 1
    22   11   12 2
    23   12   13 1
    24   12   23 1
    25   13   14 am
    26   13   16 1
    27   14   15 2
    28   16   21 ar
    29   16   17 ar
    30   17   18 ar
    31   17   33 1
    32   18   19 ar
    33   18   34 1
    34   19   20 ar
    35   19   22 1
    36   20   21 ar
    37   20   35 1
    38   21   36 1
    39   23   24 1
    40   23   37 1
    41   24   38 1
    42   24   39 1
    43   25   40 1
    44   25   41 1
@<TRIPOS>MOLECULE
ZINC20149900
   45    48     0     0     0
SMALL
USER_CHARGES
6-hydroxy-3-(o-tolyl)-5-[(1R)-1,2,3,4-tetrahydroisoquinolin-1-yl]-2-thioxo-1H-pyrimidin-4-one
@<TRIPOS>ATOM
      1 C1         -2.4066    3.5666    2.5509 C.3       1 <0>        -0.1164
      2 C2         -3.0804    3.9288    1.2526 C.ar      1 <0>        -0.0511
      3 C3         -4.2999    4.5777    1.2639 C.ar      1 <0>        -0.1136
      4 C4         -4.9214    4.9052    0.0731 C.ar      1 <0>        -0.0994
      5 C5         -4.3221    4.5896   -1.1327 C.ar      1 <0>        -0.1154
      6 C6         -3.1004    3.9460   -1.1507 C.ar      1 <0>        -0.0792
      7 C7         -2.4736    3.6157    0.0437 C.ar      1 <0>         0.1331
      8 N1         -1.2343    2.9629    0.0289 N.am      1 <0>        -0.4666
      9 C8         -0.0972    3.6864    0.0219 C.2       1 <0>         0.5607
     10 O1         -0.1447    4.9044    0.0280 O.2       1 <0>        -0.5555
     11 C9          1.1442    3.0265    0.0069 C.2       1 <0>        -0.5052
     12 C10         1.1699    1.6631   -0.0002 C.2       1 <0>         0.5074
     13 N2         -0.0111    0.9658    0.0074 N.pl3     1 <0>        -0.6113
     14 C11        -1.1880    1.6182    0.0165 C.2       1 <0>         0.5441
     15 S1         -2.6479    0.7240    0.0186 S.2       1 <0>        -0.5696
     16 O2          2.3484    1.0049   -0.0150 O.3       1 <0>        -0.6318
     17 C12         2.4286    3.8149   -0.0006 C.3       1 <0>         0.2147
     18 H1          3.2980    3.1476    0.0931 H         1 <0>         0.1424
     19 C13         2.5263    4.5936   -1.2862 C.ar      1 <0>        -0.0853
     20 C14         2.1627    3.9649   -2.4683 C.ar      1 <0>        -0.0769
     21 C15         2.2395    4.6395   -3.6699 C.ar      1 <0>        -0.1158
     22 C16         2.6818    5.9492   -3.6972 C.ar      1 <0>        -0.1075
     23 C17         3.0432    6.5765   -2.5219 C.ar      1 <0>        -0.1135
     24 C18         2.9644    5.9001   -1.3138 C.ar      1 <0>        -0.0923
     25 C19         3.3644    6.6272   -0.0557 C.3       1 <0>        -0.1017
     26 C20         3.6066    5.6237    1.0721 C.3       1 <0>         0.0008
     27 N3          2.4465    4.7217    1.1516 N.4       1 <0>        -0.5359
     28 H2         -3.0344    3.8928    3.3932 H         1 <0>         0.0733
     29 H3         -1.4281    4.0659    2.6079 H         1 <0>         0.0599
     30 H4         -2.2655    2.4768    2.5992 H         1 <0>         0.0722
     31 H5         -4.7703    4.8254    2.2040 H         1 <0>         0.1289
     32 H6         -5.8770    5.4082    0.0846 H         1 <0>         0.1278
     33 H7         -4.8102    4.8464   -2.0612 H         1 <0>         0.1290
     34 H8         -2.6328    3.7002   -2.0926 H         1 <0>         0.1202
     35 H9          1.8174    2.9418   -2.4481 H         1 <0>         0.1255
     36 H10         1.9543    4.1455   -4.5870 H         1 <0>         0.1265
     37 H11         2.7441    6.4801   -4.6357 H         1 <0>         0.1265
     38 H12         3.3887    7.5995   -2.5433 H         1 <0>         0.1253
     39 H13         4.2878    7.1962   -0.2389 H         1 <0>         0.1118
     40 H14         2.5608    7.3177    0.2400 H         1 <0>         0.0974
     41 H15         4.5178    5.0455    0.8590 H         1 <0>         0.1242
     42 H16         3.7286    6.1631    2.0230 H         1 <0>         0.1286
     43 H17         1.5245    5.3216    1.1604 H         1 <0>         0.4492
     44 H18         2.5106    4.1344    2.0795 H         1 <0>         0.4434
     45 H19        -0.0004   -0.1341    0.0061 H         1 <0>         0.4709
@<TRIPOS>BOND
     1    1    2 1
     2    1   28 1
     3    1   29 1
     4    1   30 1
     5    2    7 ar
     6    2    3 ar
     7    3    4 ar
     8    3   31 1
     9    4    5 ar
    10    4   32 1
    11    5    6 ar
    12    5   33 1
    13    6    7 ar
    14    6   34 1
    15    7    8 1
    16    8   14 1
    17    8    9 am
    18    9   10 2
    19    9   11 1
    20   11   17 1
    21   11   12 2
    22   12   16 1
    23   12   13 1
    24   13   14 1
    25   13   45 1
    26   14   15 2
    27   17   18 1
    28   17   27 1
    29   17   19 1
    30   19   24 ar
    31   19   20 ar
    32   20   21 ar
    33   20   35 1
    34   21   22 ar
    35   21   36 1
    36   22   23 ar
    37   22   37 1
    38   23   24 ar
    39   23   38 1
    40   24   25 1
    41   25   26 1
    42   25   39 1
    43   25   40 1
    44   26   27 1
    45   26   41 1
    46   26   42 1
    47   27   43 1
    48   27   44 1
@<TRIPOS>MOLECULE
ZINC36813344
   32    34     0     0     0
SMALL
USER_CHARGES

@<TRIPOS>ATOM
      1 C1         -0.0127    1.0858    0.0080 C.3       1 <0>        -0.1084
      2 C2         -0.7416    1.5850   -1.2129 C.2       1 <0>         0.1910
      3 C3         -2.0898    1.7936   -1.1636 C.2       1 <0>        -0.2959
      4 C4         -2.7481    2.2601   -2.3152 C.2       1 <0>         0.5292
      5 O1         -3.9521    2.4576   -2.3061 O.2       1 <0>        -0.5341
      6 N1         -2.0223    2.4858   -3.4311 N.am      1 <0>        -0.6153
      7 C5         -0.6792    2.2597   -3.4211 C.2       1 <0>         0.3434
      8 N2         -0.0690    1.8269   -2.3351 N.2       1 <0>        -0.5260
      9 H1         -2.4558    2.8074   -4.2370 H         1 <0>         0.4196
     10 S1          0.2600    2.5570   -4.8820 S.3       1 <0>         0.1206
     11 C6          1.9088    2.1402   -4.4210 C.ar      1 <0>        -0.1942
     12 C7          2.7787    3.1083   -3.8705 C.ar      1 <0>         0.0091
     13 C8          2.3623    4.4328   -3.6715 C.ar      1 <0>        -0.0935
     14 C9          3.2294    5.3387   -3.1377 C.ar      1 <0>        -0.0551
     15 C10         4.5257    4.9651   -2.7868 C.ar      1 <0>        -0.1087
     16 C11         4.9612    3.6885   -2.9672 C.ar      1 <0>        -0.0513
     17 C12         4.0950    2.7257   -3.5149 C.ar      1 <0>         0.0792
     18 N3          4.4995    1.4646   -3.7010 N.ar      1 <0>        -0.4022
     19 C13         3.7051    0.5527   -4.2108 C.ar      1 <0>         0.0890
     20 C14         2.3935    0.8468   -4.5819 C.ar      1 <0>         0.2546
     21 N4          1.5713   -0.1528   -5.1179 N.pl3     1 <0>        -0.8443
     22 Br1         2.6673    7.1244   -2.8703 Br        1 <0>        -0.0384
     23 H2          0.0021   -0.0041    0.0020 H         1 <0>         0.0870
     24 H3          1.0099    1.4631    0.0003 H         1 <0>         0.0815
     25 H4         -0.5229    1.4373    0.9048 H         1 <0>         0.0842
     26 H5         -2.6418    1.6030   -0.2551 H         1 <0>         0.1572
     27 H6          1.3603    4.7332   -3.9402 H         1 <0>         0.1434
     28 H7          5.1951    5.7004   -2.3654 H         1 <0>         0.1418
     29 H8          5.9687    3.4155   -2.6900 H         1 <0>         0.1473
     30 H9          4.0758   -0.4531   -4.3430 H         1 <0>         0.1711
     31 H10         0.6605    0.0562   -5.3783 H         1 <0>         0.4082
     32 H11         1.9127   -1.0539   -5.2287 H         1 <0>         0.4101
@<TRIPOS>BOND
     1    1   23 1
     2    1   24 1
     3    1   25 1
     4    1    2 1
     5    2    3 2
     6    2    8 1
     7    3    4 1
     8    3   26 1
     9    4    6 am
    10    4    5 2
    11    6    7 1
    12    6    9 1
    13    7    8 2
    14    7   10 1
    15   10   11 1
    16   11   20 ar
    17   11   12 ar
    18   12   17 ar
    19   12   13 ar
    20   13   14 ar
    21   13   27 1
    22   14   15 ar
    23   14   22 1
    24   15   16 ar
    25   15   28 1
    26   16   17 ar
    27   16   29 1
    28   17   18 ar
    29   18   19 ar
    30   19   20 ar
    31   19   30 1
    32   20   21 1
    33   21   31 1
    34   21   32 1
@<TRIPOS>MOLECULE
ZINC47534794
   43    46     0     0     0
SMALL
USER_CHARGES

@<TRIPOS>ATOM
      1 C1         -0.0187    1.5258    0.0104 C.3       1 <0>        -0.1594
      2 C2          0.0021   -0.0041    0.0020 C.3       1 <0>         0.1897
      3 H1         -1.0205   -0.3814    0.0098 H         1 <0>         0.1005
      4 C3          0.7309   -0.5033    1.2229 C.ar      1 <0>        -0.0817
      5 C4          2.1152   -0.5125    1.2435 C.ar      1 <0>        -0.1041
      6 C5          2.7921   -0.9681    2.3578 C.ar      1 <0>        -0.0974
      7 C6          2.0821   -1.4182    3.4605 C.ar      1 <0>         0.0914
      8 C7          0.6860   -1.4089    3.4397 C.ar      1 <0>         0.0955
      9 C8          0.0152   -0.9443    2.3186 C.ar      1 <0>        -0.0903
     10 N1          0.2617   -1.9098    4.6682 N.am      1 <0>        -0.6413
     11 H2         -0.6603   -2.0233    4.9471 H         1 <0>         0.4374
     12 C9          1.3497   -2.2099    5.4024 C.2       1 <0>         0.6845
     13 O1          1.3298   -2.6697    6.5289 O.2       1 <0>        -0.5512
     14 N2          2.4628   -1.9244    4.7010 N.am      1 <0>        -0.6417
     15 H3          3.3746   -2.0499    5.0073 H         1 <0>         0.4371
     16 N3          0.6878   -0.4765   -1.2033 N.am      1 <0>        -0.7232
     17 C10         0.0062   -0.6081   -2.3585 C.2       1 <0>         0.5766
     18 O2         -1.1783   -0.3347   -2.4004 O.2       1 <0>        -0.5307
     19 C11         0.6951   -1.0828   -3.5695 C.2       1 <0>        -0.1764
     20 C12         2.0325   -1.4048   -3.5498 C.2       1 <0>        -0.2193
     21 S1          2.3640   -1.8847   -5.1248 S.3       1 <0>         0.1956
     22 C13         0.7618   -1.6759   -5.8444 C.2       1 <0>        -0.1910
     23 C14        -0.0118   -1.2344   -4.8266 C.2       1 <0>        -0.0657
     24 C15        -1.4884   -0.9301   -5.0313 C.3       1 <0>        -0.0532
     25 C16        -1.7528   -0.7715   -6.5304 C.3       1 <0>        -0.1244
     26 C17        -1.2044   -1.9838   -7.2883 C.3       1 <0>        -0.1154
     27 C18         0.3327   -1.9306   -7.2557 C.3       1 <0>        -0.0381
     28 H4          1.0039    1.9031    0.0027 H         1 <0>         0.0604
     29 H5         -0.5459    1.8868   -0.8726 H         1 <0>         0.0673
     30 H6         -0.5289    1.8773    0.9072 H         1 <0>         0.0699
     31 H7          2.6681   -0.1622    0.3844 H         1 <0>         0.1315
     32 H8          3.8720   -0.9742    2.3701 H         1 <0>         0.1358
     33 H9         -1.0646   -0.9315    2.3006 H         1 <0>         0.1364
     34 H10         1.6324   -0.6946   -1.1699 H         1 <0>         0.3972
     35 H11         2.7136   -1.3594   -2.7129 H         1 <0>         0.1868
     36 H12        -2.0887   -1.7509   -4.6390 H         1 <0>         0.0776
     37 H13        -1.7463   -0.0057   -4.5147 H         1 <0>         0.0911
     38 H14        -2.8263   -0.6924   -6.7022 H         1 <0>         0.0702
     39 H15        -1.2624    0.1328   -6.8907 H         1 <0>         0.0644
     40 H16        -1.5542   -2.9002   -6.8130 H         1 <0>         0.0686
     41 H17        -1.5471   -1.9532   -8.3226 H         1 <0>         0.0736
     42 H18         0.6961   -1.1303   -7.9004 H         1 <0>         0.0845
     43 H19         0.7326   -2.8863   -7.5945 H         1 <0>         0.0810
@<TRIPOS>BOND
     1    1    2 1
     2    1   28 1
     3    1   29 1
     4    1   30 1
     5    2    3 1
     6    2    4 1
     7    2   16 1
     8    4    9 ar
     9    4    5 ar
    10    5    6 ar
    11    5   31 1
    12    6    7 ar
    13    6   32 1
    14    7   14 1
    15    7    8 ar
    16    8    9 ar
    17    8   10 1
    18    9   33 1
    19   10   11 1
    20   10   12 am
    21   12   13 2
    22   12   14 am
    23   14   15 1
    24   16   17 am
    25   16   34 1
    26   17   18 2
    27   17   19 1
    28   19   23 1
    29   19   20 2
    30   20   21 1
    31   20   35 1
    32   21   22 1
    33   22   27 1
    34   22   23 2
    35   23   24 1
    36   24   25 1
    37   24   36 1
    38   24   37 1
    39   25   26 1
    40   25   38 1
    41   25   39 1
    42   26   27 1
    43   26   40 1
    44   26   41 1
    45   27   42 1
    46   27   43 1
@<TRIPOS>MOLECULE
ZINC61360412
   36    38     0     0     0
SMALL
USER_CHARGES

@<TRIPOS>ATOM
      1 C1          1.4115   -0.5497   -1.2105 C.ar      1 <0>        -0.2051
      2 C2          2.5166    0.2727   -1.1077 C.ar      1 <0>         0.0336
      3 C3          2.5372    1.2924   -0.1745 C.ar      1 <0>        -0.7177
      4 C4          1.4514    1.4927    0.6600 C.ar      1 <0>         0.0495
      5 C5          0.3432    0.6733    0.5625 C.ar      1 <0>        -0.1882
      6 C6          0.3197   -0.3515   -0.3750 C.ar      1 <0>         0.2751
      7 N1         -0.7991   -1.1815   -0.4767 N.pl3     1 <0>        -0.8603
      8 Br1         1.4849    2.8887    1.9352 Br        1 <0>        -0.0207
      9 S1          3.9489    2.3390   -0.0469 S.o2      1 <0>         2.6887
     10 O1          4.9000    1.8541   -0.9848 O.2       1 <0>        -0.9534
     11 O2          3.4672    3.6756   -0.0722 O.2       1 <0>        -0.9441
     12 N2          4.6017    2.0995    1.4560 N.pl3     1 <0>        -1.1023
     13 C7          5.1556    0.7913    1.8141 C.3       1 <0>         0.2204
     14 H1          4.7151    0.0221    1.1798 H         1 <0>         0.0938
     15 C8          4.8445    0.4869    3.2800 C.3       1 <0>        -0.1268
     16 C9          5.6057    1.4556    4.1896 C.3       1 <0>        -0.1137
     17 C10         7.1021    1.1123    4.1324 C.3       1 <0>        -0.0442
     18 C11         7.4932    0.9536    2.6991 C.2       1 <0>        -0.1304
     19 C12         6.6694    0.8071    1.6225 C.2       1 <0>        -0.1430
     20 C13         7.2823    0.6774    0.3764 C.2       1 <0>        -0.1388
     21 C14         8.6312    0.6987    0.2794 C.2       1 <0>        -0.1737
     22 S2          9.1189    0.9096    1.9938 S.3       1 <0>         0.0239
     23 H2          1.3946   -1.3432   -1.9428 H         1 <0>         0.1380
     24 H3          3.3658    0.1185   -1.7570 H         1 <0>         0.1518
     25 H4         -0.5037    0.8293    1.2143 H         1 <0>         0.1403
     26 H5         -0.8142   -1.8972   -1.1313 H         1 <0>         0.4070
     27 H6         -1.5610   -1.0422    0.1073 H         1 <0>         0.4058
     28 H7          4.6174    2.8253    2.0993 H         1 <0>         0.4190
     29 H8          3.7737    0.5947    3.4524 H         1 <0>         0.0795
     30 H9          5.1449   -0.5356    3.5087 H         1 <0>         0.0810
     31 H10         5.4518    2.4781    3.8449 H         1 <0>         0.0693
     32 H11         5.2462    1.3545    5.2136 H         1 <0>         0.0790
     33 H12         7.6812    1.9176    4.5842 H         1 <0>         0.0838
     34 H13         7.2861    0.1813    4.6686 H         1 <0>         0.0869
     35 H14         6.6793    0.5595   -0.5118 H         1 <0>         0.1502
     36 H15         9.2517    0.6116   -0.6003 H         1 <0>         0.1856
@<TRIPOS>BOND
     1    1    6 ar
     2    1    2 ar
     3    1   23 1
     4    2    3 ar
     5    2   24 1
     6    3    4 ar
     7    3    9 1
     8    4    5 ar
     9    4    8 1
    10    5    6 ar
    11    5   25 1
    12    6    7 1
    13    7   26 1
    14    7   27 1
    15    9   10 2
    16    9   11 2
    17    9   12 1
    18   12   13 1
    19   12   28 1
    20   13   14 1
    21   13   19 1
    22   13   15 1
    23   15   16 1
    24   15   29 1
    25   15   30 1
    26   16   17 1
    27   16   31 1
    28   16   32 1
    29   17   18 1
    30   17   33 1
    31   17   34 1
    32   18   22 1
    33   18   19 2
    34   19   20 1
    35   20   21 2
    36   20   35 1
    37   21   22 1
    38   21   36 1
@<TRIPOS>MOLECULE
ZINC66783326
   34    36     0     0     0
SMALL
USER_CHARGES

@<TRIPOS>ATOM
      1 C1         -0.0184    1.5028    0.0103 C.3       1 <0>        -0.1100
      2 C2          0.0021   -0.0041    0.0020 C.2       1 <0>        -0.0132
      3 C3          0.0067   -0.7285   -1.1658 C.2       1 <0>        -0.1876
      4 C4          0.0259   -2.0828   -1.1012 C.2       1 <0>        -0.2059
      5 S1          0.0382   -2.4164    0.5452 S.3       1 <0>         0.2129
      6 C5          0.0233   -0.7477    1.1721 C.2       1 <0>        -0.2762
      7 C6          0.0297   -0.2828    2.5623 C.2       1 <0>         0.6150
      8 O1          0.0154    0.9096    2.8053 O.2       1 <0>        -0.5230
      9 N1          0.0515   -1.1760    3.5714 N.am      1 <0>        -0.5168
     10 N2          0.0577   -0.7317    4.9001 N.am      1 <0>        -0.5176
     11 C7          0.0795   -1.6248    5.9092 C.2       1 <0>         0.5894
     12 O2          0.0938   -2.8168    5.6663 O.2       1 <0>        -0.5129
     13 C8          0.0859   -1.1586    7.3035 C.2       1 <0>         0.0192
     14 C9          0.1132   -1.9585    8.4015 C.2       1 <0>        -0.0827
     15 C10         0.1103   -1.1227    9.5442 C.ar      1 <0>        -0.1203
     16 C11         0.1305   -1.3770   10.9220 C.ar      1 <0>        -0.0403
     17 C12         0.1210   -0.3369   11.8045 C.ar      1 <0>        -0.1395
     18 C13         0.0908    0.9770   11.3499 C.ar      1 <0>         0.0025
     19 C14         0.0705    1.2523    9.9999 C.ar      1 <0>        -0.1251
     20 C15         0.0803    0.2071    9.0806 C.ar      1 <0>         0.1302
     21 N3          0.0712    0.1632    7.7064 N.pl3     1 <0>        -0.5769
     22 H1          0.0552    0.9332    7.1167 H         1 <0>         0.4211
     23 Cl1         0.0780    2.2826   12.4940 Cl        1 <0>        -0.0592
     24 H2          1.0042    1.8801    0.0026 H         1 <0>         0.0790
     25 H3         -0.5455    1.8639   -0.8728 H         1 <0>         0.0697
     26 H4         -0.5286    1.8543    0.9071 H         1 <0>         0.0889
     27 H5         -0.0051   -0.2261   -2.1218 H         1 <0>         0.1431
     28 H6          0.0319   -2.7861   -1.9208 H         1 <0>         0.1936
     29 H7          0.0629   -2.1264    3.3777 H         1 <0>         0.4341
     30 H8          0.0462    0.2187    5.0937 H         1 <0>         0.4297
     31 H9          0.1334   -3.0384    8.4024 H         1 <0>         0.1642
     32 H10         0.1533   -2.3941   11.2844 H         1 <0>         0.1396
     33 H11         0.1366   -0.5357   12.8660 H         1 <0>         0.1387
     34 H12         0.0468    2.2758    9.6561 H         1 <0>         0.1365
@<TRIPOS>BOND
     1    1    2 1
     2    1   24 1
     3    1   25 1
     4    1   26 1
     5    2    6 2
     6    2    3 1
     7    3    4 2
     8    3   27 1
     9    4    5 1
    10    4   28 1
    11    5    6 1
    12    6    7 1
    13    7    8 2
    14    7    9 am
    15    9   10 1
    16    9   29 1
    17   10   11 am
    18   10   30 1
    19   11   12 2
    20   11   13 1
    21   13   21 1
    22   13   14 2
    23   14   15 1
    24   14   31 1
    25   15   20 ar
    26   15   16 ar
    27   16   17 ar
    28   16   32 1
    29   17   18 ar
    30   17   33 1
    31   18   19 ar
    32   18   23 1
    33   19   20 ar
    34   19   34 1
    35   20   21 1
    36   21   22 1
@<TRIPOS>MOLECULE
ZINC10887480
   40    41     0     0     0
SMALL
USER_CHARGES
5-chloro-2-hydroxy-N'-[2-(1,3,5-trimethylpyrazol-4-yl)acetyl]-benzohydrazide
@<TRIPOS>ATOM
      1 C1          3.6030    0.7750   -0.0277 C.3       1 <0>        -0.0759
      2 C2          2.0963    0.7484   -0.0139 C.2       1 <0>         0.0940
      3 C3          1.2963   -0.3989   -0.0125 C.2       1 <0>        -0.2293
      4 C4          0.0021   -0.0041    0.0020 C.2       1 <0>         0.1059
      5 N1         -0.0162    1.3453    0.0094 N.pl3     1 <0>        -0.3718
      6 N2          1.3106    1.7945   -0.0008 N.2       1 <0>        -0.2960
      7 C5         -1.2124    2.1909    0.0199 C.3       1 <0>         0.1004
      8 C6         -1.2029   -0.9090    0.0091 C.3       1 <0>        -0.0963
      9 C7          1.7886   -1.8232   -0.0248 C.3       1 <0>        -0.0448
     10 C8          1.9392   -2.2903   -1.4497 C.2       1 <0>         0.5134
     11 O1          1.6729   -1.5405   -2.3650 O.2       1 <0>        -0.5255
     12 N3          2.3698   -3.5413   -1.7068 N.am      1 <0>        -0.5251
     13 N4          2.5097   -3.9755   -3.0314 N.am      1 <0>        -0.5214
     14 C9          2.9403   -5.2265   -3.2885 C.2       1 <0>         0.5636
     15 O2          3.2073   -5.9782   -2.3709 O.2       1 <0>        -0.5158
     16 C10         3.0877   -5.6838   -4.6835 C.ar      1 <0>        -0.1508
     17 C11         2.7820   -4.8233   -5.7408 C.ar      1 <0>        -0.0620
     18 C12         2.9219   -5.2570   -7.0423 C.ar      1 <0>        -0.0534
     19 C13         3.3648   -6.5440   -7.3064 C.ar      1 <0>        -0.0612
     20 C14         3.6696   -7.4038   -6.2702 C.ar      1 <0>        -0.1405
     21 C15         3.5405   -6.9817   -4.9553 C.ar      1 <0>         0.1824
     22 O3          3.8456   -7.8241   -3.9364 O.3       1 <0>        -0.4733
     23 Cl1         2.5424   -4.1869   -8.3555 Cl        1 <0>        -0.0530
     24 H1          3.9567    0.7867   -1.0587 H         1 <0>         0.0777
     25 H2          3.9553    1.6686    0.4875 H         1 <0>         0.0746
     26 H3          3.9867   -0.1111    0.4780 H         1 <0>         0.0759
     27 H4         -1.5040    2.3951    1.0502 H         1 <0>         0.0755
     28 H5         -0.9979    3.1302   -0.4899 H         1 <0>         0.0906
     29 H6         -2.0254    1.6768   -0.4927 H         1 <0>         0.0864
     30 H7         -1.5034   -1.1221   -1.0168 H         1 <0>         0.0822
     31 H8         -0.9541   -1.8414    0.5159 H         1 <0>         0.0852
     32 H9         -2.0229   -0.4182    0.5334 H         1 <0>         0.0729
     33 H10         2.7533   -1.8785    0.4795 H         1 <0>         0.1082
     34 H11         1.0711   -2.4601    0.4925 H         1 <0>         0.1047
     35 H12         2.5827   -4.1410   -0.9747 H         1 <0>         0.4327
     36 H13         2.2967   -3.3759   -3.7635 H         1 <0>         0.4300
     37 H14         2.4371   -3.8200   -5.5392 H         1 <0>         0.1409
     38 H15         3.4717   -6.8759   -8.3285 H         1 <0>         0.1469
     39 H16         4.0141   -8.4048   -6.4838 H         1 <0>         0.1508
     40 H17         3.1005   -8.3607   -3.6332 H         1 <0>         0.4013
@<TRIPOS>BOND
     1    1    2 1
     2    1   24 1
     3    1   25 1
     4    1   26 1
     5    2    6 2
     6    2    3 1
     7    3    4 2
     8    3    9 1
     9    4    5 1
    10    4    8 1
    11    5    6 1
    12    5    7 1
    13    7   27 1
    14    7   28 1
    15    7   29 1
    16    8   30 1
    17    8   31 1
    18    8   32 1
    19    9   10 1
    20    9   33 1
    21    9   34 1
    22   10   11 2
    23   10   12 am
    24   12   13 1
    25   12   35 1
    26   13   14 am
    27   13   36 1
    28   14   15 2
    29   14   16 1
    30   16   21 ar
    31   16   17 ar
    32   17   18 ar
    33   17   37 1
    34   18   19 ar
    35   18   23 1
    36   19   20 ar
    37   19   38 1
    38   20   21 ar
    39   20   39 1
    40   21   22 1
    41   22   40 1
@<TRIPOS>MOLECULE
ZINC34629341
   40    42     0     0     0
SMALL
USER_CHARGES

@<TRIPOS>ATOM
      1 C1          0.8671   -0.5195    0.7374 C.3       1 <0>        -0.0797
      2 C2          0.3324   -1.9267    0.8069 C.2       1 <0>         0.2940
      3 N1          0.2305   -2.7362   -0.2066 N.2       1 <0>        -0.4868
      4 C3         -0.2888   -3.9210    0.2059 C.ar      1 <0>         0.0514
      5 C4         -0.6038   -5.1151   -0.4481 C.ar      1 <0>        -0.0633
      6 C5         -1.1291   -6.1598    0.2581 C.ar      1 <0>        -0.1266
      7 C6         -1.3552   -6.0493    1.6228 C.ar      1 <0>        -0.0998
      8 C7         -1.0521   -4.8810    2.2888 C.ar      1 <0>        -0.1107
      9 C8         -0.5171   -3.8087    1.5877 C.ar      1 <0>         0.0549
     10 N2         -0.1087   -2.5377    1.9394 N.pl3     1 <0>        -0.4786
     11 C9         -0.1465   -1.9541    3.2826 C.3       1 <0>         0.0985
     12 C10        -1.4712   -1.2679    3.4951 C.2       1 <0>         0.5035
     13 O1         -2.3023   -1.2665    2.6112 O.2       1 <0>        -0.4746
     14 N3         -1.7328   -0.6557    4.6669 N.am      1 <0>        -0.5908
     15 N4         -2.9643   -0.0177    4.8645 N.2       1 <0>        -0.2191
     16 C11        -3.1763    0.6626    5.9498 C.2       1 <0>         0.1245
     17 C12        -2.0551    0.9801    6.8508 C.ar      1 <0>        -0.1471
     18 C13        -0.7528    1.0567    6.3501 C.ar      1 <0>        -0.0984
     19 C14         0.2929    1.3544    7.1960 C.ar      1 <0>        -0.1474
     20 C15         0.0576    1.5787    8.5474 C.ar      1 <0>         0.1440
     21 C16        -1.2316    1.5045    9.0544 C.ar      1 <0>        -0.1678
     22 C17        -2.2911    1.2124    8.2134 C.ar      1 <0>         0.1622
     23 O2         -3.5543    1.1450    8.7072 O.3       1 <0>        -0.4888
     24 O3          1.0941    1.8713    9.3752 O.3       1 <0>        -0.4951
     25 H1          1.9448   -0.5318    0.9005 H         1 <0>         0.0914
     26 H2          0.6531   -0.0975   -0.2445 H         1 <0>         0.1005
     27 H3          0.3903    0.0888    1.5061 H         1 <0>         0.0741
     28 H4         -0.4325   -5.2117   -1.5100 H         1 <0>         0.1304
     29 H5         -1.3712   -7.0811   -0.2509 H         1 <0>         0.1309
     30 H6         -1.7717   -6.8842    2.1668 H         1 <0>         0.1307
     31 H7         -1.2297   -4.8003    3.3511 H         1 <0>         0.1179
     32 H8         -0.0225   -2.7425    4.0250 H         1 <0>         0.1261
     33 H9          0.6597   -1.2277    3.3859 H         1 <0>         0.1287
     34 H10        -1.0683   -0.6568    5.3736 H         1 <0>         0.3931
     35 H11        -4.1747    0.9957    6.1919 H         1 <0>         0.1934
     36 H12        -0.5662    0.8824    5.3007 H         1 <0>         0.1391
     37 H13         1.2991    1.4134    6.8079 H         1 <0>         0.1407
     38 H14        -1.4090    1.6789   10.1054 H         1 <0>         0.1443
     39 H15        -3.8362    0.2512    8.9458 H         1 <0>         0.4005
     40 H16         1.2811    2.8169    9.4523 H         1 <0>         0.4004
@<TRIPOS>BOND
     1    1    2 1
     2    1   25 1
     3    1   26 1
     4    1   27 1
     5    2   10 1
     6    2    3 2
     7    3    4 1
     8    4    9 ar
     9    4    5 ar
    10    5    6 ar
    11    5   28 1
    12    6    7 ar
    13    6   29 1
    14    7    8 ar
    15    7   30 1
    16    8    9 ar
    17    8   31 1
    18    9   10 1
    19   10   11 1
    20   11   12 1
    21   11   32 1
    22   11   33 1
    23   12   13 2
    24   12   14 am
    25   14   15 1
    26   14   34 1
    27   15   16 2
    28   16   17 1
    29   16   35 1
    30   17   22 ar
    31   17   18 ar
    32   18   19 ar
    33   18   36 1
    34   19   20 ar
    35   19   37 1
    36   20   21 ar
    37   20   24 1
    38   21   22 ar
    39   21   38 1
    40   22   23 1
    41   23   39 1
    42   24   40 1
@<TRIPOS>MOLECULE
ZINC39464592
   44    47     0     0     0
SMALL
USER_CHARGES

@<TRIPOS>ATOM
      1 C1         -0.0173    1.4248    0.0099 C.3       1 <0>         0.0903
      2 O1          0.0021   -0.0041    0.0020 O.3       1 <0>        -0.7592
      3 P1         -1.3361   -0.8992    0.0100 P.3       1 <0>         2.4551
      4 O2         -2.2854   -0.4074   -1.0134 O.2       1 <0>        -1.0250
      5 N1         -2.0371   -0.8654    1.5071 N.pl3     1 <0>        -1.0309
      6 N2         -1.4829   -1.6850    2.4652 N.3       1 <0>        -0.2785
      7 C2         -2.2285   -1.5525    3.7261 C.3       1 <0>         0.0351
      8 C3         -1.4138   -2.1946    4.8487 C.3       1 <0>        -0.0737
      9 C4         -1.0179   -3.5941    4.4514 C.ar      1 <0>        -0.0765
     10 C5         -0.6278   -4.4754    5.4456 C.ar      1 <0>        -0.0870
     11 C6         -0.2543   -5.7760    5.1238 C.ar      1 <0>        -0.0610
     12 C7         -0.2752   -6.1870    3.7872 C.ar      1 <0>         0.1398
     13 C8         -0.6660   -5.2969    2.8039 C.ar      1 <0>        -0.1428
     14 C9         -1.0377   -4.0003    3.1330 C.ar      1 <0>        -0.0535
     15 C10        -1.4551   -3.0773    2.0179 C.3       1 <0>         0.0280
     16 H1         -2.4545   -3.3588    1.6861 H         1 <0>         0.0826
     17 C11        -0.4963   -3.2564    0.8369 C.3       1 <0>         0.0992
     18 O3         -0.9701   -2.4595   -0.2669 O.3       1 <0>        -0.6989
     19 O4          0.0869   -7.4540    3.4566 O.3       1 <0>        -0.4812
     20 C12         0.1633   -6.7190    6.1893 C.ar      1 <0>        -0.0785
     21 C13        -0.7512   -7.1325    7.1555 C.ar      1 <0>        -0.0911
     22 C14        -0.3579   -8.0108    8.1448 C.ar      1 <0>        -0.1306
     23 C15         0.9426   -8.4823    8.1812 C.ar      1 <0>        -0.0973
     24 C16         1.8578   -8.0785    7.2277 C.ar      1 <0>        -0.1479
     25 C17         1.4749   -7.2017    6.2254 C.ar      1 <0>         0.1361
     26 O5          2.3723   -6.8084    5.2842 O.3       1 <0>        -0.4849
     27 H2          1.0053    1.8021    0.0021 H         1 <0>         0.0946
     28 H3         -0.5445    1.7859   -0.8732 H         1 <0>         0.0654
     29 H4         -0.5275    1.7763    0.9067 H         1 <0>         0.0505
     30 H5         -2.7991   -0.2973    1.7007 H         1 <0>         0.4165
     31 H6         -2.3873   -0.4971    3.9475 H         1 <0>         0.0980
     32 H7         -3.1900   -2.0581    3.6370 H         1 <0>         0.0565
     33 H8         -0.5174   -1.6020    5.0311 H         1 <0>         0.0933
     34 H9         -2.0147   -2.2317    5.7574 H         1 <0>         0.0915
     35 H10        -0.6138   -4.1515    6.4758 H         1 <0>         0.1317
     36 H11        -0.6821   -5.6128    1.7712 H         1 <0>         0.1367
     37 H12         0.5025   -2.9271    1.1235 H         1 <0>         0.0865
     38 H13        -0.4681   -4.3061    0.5446 H         1 <0>         0.1220
     39 H14        -0.6460   -8.0849    3.4552 H         1 <0>         0.3890
     40 H15        -1.7668   -6.7660    7.1306 H         1 <0>         0.1263
     41 H16        -1.0674   -8.3308    8.8934 H         1 <0>         0.1276
     42 H17         1.2439   -9.1688    8.9587 H         1 <0>         0.1282
     43 H18         2.8714   -8.4499    7.2613 H         1 <0>         0.1310
     44 H19         2.8687   -6.0133    5.5220 H         1 <0>         0.3872
@<TRIPOS>BOND
     1    1    2 1
     2    1   27 1
     3    1   28 1
     4    1   29 1
     5    2    3 1
     6    3   18 1
     7    3    4 2
     8    3    5 1
     9    5    6 1
    10    5   30 1
    11    6   15 1
    12    6    7 1
    13    7    8 1
    14    7   31 1
    15    7   32 1
    16    8    9 1
    17    8   33 1
    18    8   34 1
    19    9   14 ar
    20    9   10 ar
    21   10   11 ar
    22   10   35 1
    23   11   12 ar
    24   11   20 1
    25   12   13 ar
    26   12   19 1
    27   13   14 ar
    28   13   36 1
    29   14   15 1
    30   15   16 1
    31   15   17 1
    32   17   18 1
    33   17   37 1
    34   17   38 1
    35   19   39 1
    36   20   25 ar
    37   20   21 ar
    38   21   22 ar
    39   21   40 1
    40   22   23 ar
    41   22   41 1
    42   23   24 ar
    43   23   42 1
    44   24   25 ar
    45   24   43 1
    46   25   26 1
    47   26   44 1
@<TRIPOS>MOLECULE
ZINC62824307
   25    27     0     0     0
SMALL
USER_CHARGES

@<TRIPOS>ATOM
      1 C1         -0.0043    1.3669   -0.2264 C.ar      1 <0>        -0.0018
      2 C2          1.1727    2.0864   -0.1691 C.ar      1 <0>        -0.1941
      3 C3          2.3773    1.4330    0.0527 C.ar      1 <0>         0.2847
      4 C4          2.3919    0.0398    0.2181 C.ar      1 <0>        -0.1300
      5 C5          1.1940   -0.6746    0.1578 C.ar      1 <0>         0.0260
      6 C6          0.0064   -0.0089   -0.0634 C.ar      1 <0>        -0.1653
      7 I1         -1.7898   -1.0834   -0.1528 I         1 <0>        -0.0314
      8 C7          3.6659   -0.6663    0.4540 C.2       1 <0>         0.3513
      9 N1          4.0663   -1.7580   -0.1575 N.2       1 <0>        -0.5062
     10 C8          5.2721   -2.1243    0.3037 C.2       1 <0>         0.3407
     11 N2          5.6547   -1.2662    1.2181 N.2       1 <0>        -0.2884
     12 O1          4.6203   -0.3001    1.3280 O.3       1 <0>        -0.0927
     13 C9          6.0461   -3.3081   -0.1474 C.2       1 <0>         0.2875
     14 N3          7.2499   -3.6752    0.3120 N.2       1 <0>        -0.5136
     15 H1          6.7074   -5.8892   -1.7692 H         1 <0>         0.4516
     16 C10         7.6439   -4.7610   -0.2982 C.2       1 <0>         0.2760
     17 N4          6.6898   -5.1221   -1.1759 N.pl3     1 <0>        -0.4706
     18 N5          5.6612   -4.1730   -1.0598 N.2       1 <0>        -0.2432
     19 N6          3.5645    2.1562    0.1103 N.pl3     1 <0>        -0.8555
     20 H2         -0.9396    1.8802   -0.3947 H         1 <0>         0.1394
     21 H3          1.1563    3.1586   -0.2974 H         1 <0>         0.1436
     22 H4          1.1973   -1.7472    0.2838 H         1 <0>         0.1414
     23 H5          8.5756   -5.2799   -0.1276 H         1 <0>         0.2368
     24 H6          3.5435    3.1257    0.0876 H         1 <0>         0.4106
     25 H7          4.4133    1.6909    0.1730 H         1 <0>         0.4033
@<TRIPOS>BOND
     1    1    6 ar
     2    1    2 ar
     3    1   20 1
     4    2    3 ar
     5    2   21 1
     6    3    4 ar
     7    3   19 1
     8    4    5 ar
     9    4    8 1
    10    5    6 ar
    11    5   22 1
    12    6    7 1
    13    8   12 1
    14    8    9 2
    15    9   10 1
    16   10   11 2
    17   10   13 1
    18   11   12 1
    19   13   14 1
    20   13   18 2
    21   14   16 2
    22   15   17 1
    23   16   23 1
    24   16   17 1
    25   17   18 1
    26   19   24 1
    27   19   25 1
@<TRIPOS>MOLECULE
ZINC67066329
   44    45     0     0     0
SMALL
USER_CHARGES

@<TRIPOS>ATOM
      1 C1         -0.0184    1.5028    0.0103 C.3       1 <0>        -0.1110
      2 C2          0.0021   -0.0041    0.0020 C.2       1 <0>        -0.0135
      3 C3          0.0067   -0.7285   -1.1658 C.2       1 <0>        -0.1852
      4 C4          0.0259   -2.0828   -1.1013 C.2       1 <0>        -0.2040
      5 S1          0.0382   -2.4164    0.5452 S.3       1 <0>         0.1968
      6 C5          0.0233   -0.7477    1.1721 C.2       1 <0>        -0.2723
      7 C6          0.0302   -0.2828    2.5623 C.2       1 <0>         0.6138
      8 O1          0.0163    0.9096    2.8053 O.2       1 <0>        -0.5130
      9 N1          0.0519   -1.1760    3.5714 N.am      1 <0>        -0.5279
     10 N2          0.0584   -0.7317    4.9001 N.am      1 <0>        -0.5274
     11 C7          0.0802   -1.6248    5.9092 C.2       1 <0>         0.7149
     12 O2          0.0859   -1.2392    7.0623 O.2       1 <0>        -0.5647
     13 N3          0.0956   -2.9454    5.6401 N.am      1 <0>        -0.7375
     14 C8          0.1192   -3.9162    6.7370 C.3       1 <0>         0.2422
     15 H1          0.7111   -3.5186    7.5614 H         1 <0>         0.0970
     16 C9         -1.3099   -4.1795    7.2158 C.3       1 <0>        -0.1599
     17 C10         0.7326   -5.2051    6.2539 C.2       1 <0>        -0.2552
     18 C11         0.4502   -5.8484    5.0445 C.2       1 <0>         0.0826
     19 N4          1.1763   -6.9349    4.9801 N.2       1 <0>        -0.2891
     20 N5          1.9450   -7.0174    6.1483 N.pl3     1 <0>        -0.3695
     21 C12         1.6584   -5.9415    6.9109 C.2       1 <0>         0.1081
     22 C13         2.2591   -5.6198    8.2550 C.3       1 <0>        -0.1003
     23 C14         2.8963   -8.0807    6.4808 C.3       1 <0>         0.0987
     24 C15        -0.5226   -5.3724    3.9965 C.3       1 <0>        -0.0878
     25 H2          1.0042    1.8801    0.0026 H         1 <0>         0.0794
     26 H3         -0.5455    1.8639   -0.8728 H         1 <0>         0.0696
     27 H4         -0.5286    1.8543    0.9071 H         1 <0>         0.0903
     28 H5         -0.0051   -0.2261   -2.1218 H         1 <0>         0.1432
     29 H6          0.0316   -2.7861   -1.9208 H         1 <0>         0.1932
     30 H7          0.0630   -2.1264    3.3777 H         1 <0>         0.4158
     31 H8          0.0474    0.2187    5.0937 H         1 <0>         0.4456
     32 H9          0.0910   -3.2530    4.7202 H         1 <0>         0.3889
     33 H10        -1.2924   -4.9019    8.0319 H         1 <0>         0.0679
     34 H11        -1.7536   -3.2473    7.5652 H         1 <0>         0.0658
     35 H12        -1.9019   -4.5771    6.3914 H         1 <0>         0.0584
     36 H13         1.6545   -6.0725    9.0409 H         1 <0>         0.0857
     37 H14         3.2736   -6.0155    8.3038 H         1 <0>         0.0741
     38 H15         2.2837   -4.5388    8.3927 H         1 <0>         0.0902
     39 H16         3.8846   -7.8143    6.1060 H         1 <0>         0.0766
     40 H17         2.9393   -8.2045    7.5628 H         1 <0>         0.0889
     41 H18         2.5729   -9.0145    6.0208 H         1 <0>         0.0918
     42 H19        -0.0049   -4.7277    3.2863 H         1 <0>         0.0729
     43 H20        -0.9393   -6.2314    3.4707 H         1 <0>         0.0841
     44 H21        -1.3272   -4.8138    4.4747 H         1 <0>         0.0820
@<TRIPOS>BOND
     1    1    2 1
     2    1   25 1
     3    1   26 1
     4    1   27 1
     5    2    6 2
     6    2    3 1
     7    3    4 2
     8    3   28 1
     9    4    5 1
    10    4   29 1
    11    5    6 1
    12    6    7 1
    13    7    8 2
    14    7    9 am
    15    9   10 1
    16    9   30 1
    17   10   11 am
    18   10   31 1
    19   11   12 2
    20   11   13 am
    21   13   14 1
    22   13   32 1
    23   14   15 1
    24   14   16 1
    25   14   17 1
    26   16   33 1
    27   16   34 1
    28   16   35 1
    29   17   21 2
    30   17   18 1
    31   18   19 2
    32   18   24 1
    33   19   20 1
    34   20   21 1
    35   20   23 1
    36   21   22 1
    37   22   36 1
    38   22   37 1
    39   22   38 1
    40   23   39 1
    41   23   40 1
    42   23   41 1
    43   24   42 1
    44   24   43 1
    45   24   44 1
@<TRIPOS>MOLECULE
ZINC05553319
   47    50     0     0     0
SMALL
USER_CHARGES
N-(2-chlorophenyl)-2-(methyl-oxo-BLAHyl)-propanamide
@<TRIPOS>ATOM
      1 C1          7.8920   -1.6958   -0.0597 C.3       1 <0>        -0.1470
      2 C2          6.4475   -1.3021    0.2555 C.3       1 <0>        -0.0875
      3 H1          6.2488   -1.4590    1.3157 H         1 <0>         0.0769
      4 C3          5.4885   -2.1564   -0.5788 C.3       1 <0>        -0.1173
      5 C4          4.0533   -1.9510   -0.0926 C.3       1 <0>        -0.0588
      6 C5          3.7511   -0.4552   -0.0690 C.2       1 <0>        -0.0506
      7 C6          4.7519    0.4505   -0.0727 C.2       1 <0>        -0.1683
      8 S1          3.9439    2.0279   -0.0430 S.3       1 <0>         0.1490
      9 C7          2.2610    1.4642   -0.0252 C.2       1 <0>         0.1044
     10 C8          2.3851    0.0661   -0.0426 C.2       1 <0>        -0.2432
     11 C9          1.1530   -0.6664   -0.0327 C.2       1 <0>         0.5575
     12 O1          1.1565   -1.8852   -0.0466 O.2       1 <0>        -0.5203
     13 N1         -0.0080    0.0144   -0.0083 N.am      1 <0>        -0.5156
     14 C10        -0.0306    1.3719    0.0069 C.2       1 <0>         0.4061
     15 N2          1.0755    2.0669   -0.0014 N.2       1 <0>        -0.4869
     16 C11        -1.2730   -0.7245    0.0027 C.3       1 <0>         0.0981
     17 H2         -1.0686   -1.7951   -0.0120 H         1 <0>         0.1507
     18 C12        -2.0958   -0.3454   -1.2302 C.3       1 <0>        -0.1646
     19 C13        -2.0464   -0.3779    1.2488 C.2       1 <0>         0.5103
     20 O2         -1.5862    0.4089    2.0490 O.2       1 <0>        -0.5026
     21 N3         -3.2494   -0.9422    1.4741 N.am      1 <0>        -0.6606
     22 C14        -3.9255   -0.6933    2.6742 C.ar      1 <0>         0.1495
     23 C15        -3.8257    0.5500    3.2842 C.ar      1 <0>        -0.1078
     24 C16        -4.4986    0.7944    4.4653 C.ar      1 <0>        -0.0953
     25 C17        -5.2622   -0.2010    5.0471 C.ar      1 <0>        -0.1168
     26 C18        -5.3597   -1.4423    4.4460 C.ar      1 <0>        -0.0918
     27 C19        -4.6935   -1.6918    3.2608 C.ar      1 <0>        -0.0610
     28 Cl1        -4.8156   -3.2506    2.5066 Cl        1 <0>        -0.0616
     29 C20         6.2245    0.1756   -0.0969 C.3       1 <0>        -0.0319
     30 H3          8.0901   -1.5329   -1.1191 H         1 <0>         0.0575
     31 H4          8.5726   -1.0867    0.5351 H         1 <0>         0.0580
     32 H5          8.0423   -2.7484    0.1804 H         1 <0>         0.0596
     33 H6          5.7583   -3.2076   -0.4774 H         1 <0>         0.0720
     34 H7          5.5613   -1.8643   -1.6264 H         1 <0>         0.0663
     35 H8          3.9455   -2.3614    0.9114 H         1 <0>         0.0781
     36 H9          3.3611   -2.4529   -0.7687 H         1 <0>         0.0860
     37 H10        -0.9801    1.8864    0.0216 H         1 <0>         0.2092
     38 H11        -2.3002    0.7252   -1.2155 H         1 <0>         0.0761
     39 H12        -1.5364   -0.5961   -2.1315 H         1 <0>         0.0869
     40 H13        -3.0370   -0.8951   -1.2220 H         1 <0>         0.0894
     41 H14        -3.6467   -1.5208    0.8046 H         1 <0>         0.4164
     42 H15        -3.2257    1.3266    2.8333 H         1 <0>         0.1488
     43 H16        -4.4244    1.7628    4.9378 H         1 <0>         0.1355
     44 H17        -5.7834   -0.0085    5.9732 H         1 <0>         0.1361
     45 H18        -5.9566   -2.2177    4.9029 H         1 <0>         0.1397
     46 H19         6.7280    0.8075    0.6347 H         1 <0>         0.0845
     47 H20         6.6201    0.3794   -1.0920 H         1 <0>         0.0870
@<TRIPOS>BOND
     1    1    2 1
     2    1   30 1
     3    1   31 1
     4    1   32 1
     5    2    3 1
     6    2   29 1
     7    2    4 1
     8    4    5 1
     9    4   33 1
    10    4   34 1
    11    5    6 1
    12    5   35 1
    13    5   36 1
    14    6   10 1
    15    6    7 2
    16    7    8 1
    17    7   29 1
    18    8    9 1
    19    9   15 1
    20    9   10 2
    21   10   11 1
    22   11   12 2
    23   11   13 am
    24   13   14 1
    25   13   16 1
    26   14   15 2
    27   14   37 1
    28   16   17 1
    29   16   18 1
    30   16   19 1
    31   18   38 1
    32   18   39 1
    33   18   40 1
    34   19   20 2
    35   19   21 am
    36   21   22 1
    37   21   41 1
    38   22   27 ar
    39   22   23 ar
    40   23   24 ar
    41   23   42 1
    42   24   25 ar
    43   24   43 1
    44   25   26 ar
    45   25   44 1
    46   26   27 ar
    47   26   45 1
    48   27   28 1
    49   29   46 1
    50   29   47 1
@<TRIPOS>MOLECULE
ZINC15628983
   38    41     0     0     0
SMALL
USER_CHARGES
N-(4-bromophenyl)-2-(dioxoBLAHyl)acetamide
@<TRIPOS>ATOM
      1 C1         -1.1927   -0.6814   -0.0146 C.ar      1 <0>        -0.0869
      2 C2         -0.0049   -0.0105   -0.0212 C.ar      1 <0>        -0.1123
      3 C3         -0.0202    1.3943   -0.0043 C.ar      1 <0>        -0.0259
      4 C4          1.1467    2.1765   -0.0090 C.ar      1 <0>        -0.0477
      5 C5          1.0500    3.5368    0.0090 C.ar      1 <0>        -0.1367
      6 C6         -0.1951    4.1778    0.0328 C.ar      1 <0>         0.0503
      7 C7         -1.3253    3.4473    0.0374 C.ar      1 <0>        -0.6417
      8 C8         -1.2691    2.0492    0.0246 C.ar      1 <0>        -0.0738
      9 C9         -2.4831    1.3652    0.0255 C.ar      1 <0>         0.1406
     10 C10        -2.4178   -0.0269    0.0081 C.ar      1 <0>        -0.1095
     11 N1         -3.6319    2.1732    0.0495 N.pl3     1 <0>        -0.9047
     12 S1         -3.0687    3.7526    0.0625 S.o2      1 <0>         2.6703
     13 O1         -3.4225    4.3494   -1.1776 O.2       1 <0>        -0.9329
     14 O2         -3.3918    4.3178    1.3256 O.2       1 <0>        -0.9216
     15 C11        -5.0280    1.7295    0.0602 C.3       1 <0>         0.1301
     16 C12        -5.4526    1.4412    1.4771 C.2       1 <0>         0.4841
     17 O3         -4.6663    1.5915    2.3883 O.2       1 <0>        -0.4841
     18 N2         -6.7060    1.0163    1.7318 N.am      1 <0>        -0.6726
     19 C13        -7.0717    0.6560    3.0338 C.ar      1 <0>         0.1584
     20 C14        -7.9704   -0.3820    3.2419 C.ar      1 <0>        -0.1378
     21 C15        -8.3248   -0.7395    4.5279 C.ar      1 <0>        -0.0718
     22 C16        -7.7945   -0.0567    5.6082 C.ar      1 <0>        -0.1047
     23 C17        -6.9036    0.9820    5.4035 C.ar      1 <0>        -0.0705
     24 C18        -6.5410    1.3396    4.1198 C.ar      1 <0>        -0.1152
     25 Br1        -8.2877   -0.5443    7.3674 Br        1 <0>        -0.0484
     26 H1         -1.1801   -1.7612   -0.0271 H         1 <0>         0.1344
     27 H2          0.9307   -0.5497   -0.0395 H         1 <0>         0.1397
     28 H3          2.1169    1.7023   -0.0271 H         1 <0>         0.1433
     29 H4          1.9515    4.1315    0.0053 H         1 <0>         0.1420
     30 H5         -0.2481    5.2564    0.0470 H         1 <0>         0.1414
     31 H6         -3.3308   -0.6039    0.0127 H         1 <0>         0.1307
     32 H7         -5.6614    2.5126   -0.3566 H         1 <0>         0.1276
     33 H8         -5.1264    0.8249   -0.5398 H         1 <0>         0.1289
     34 H9         -7.3546    0.9601    1.0128 H         1 <0>         0.4155
     35 H10        -8.3885   -0.9122    2.3989 H         1 <0>         0.1364
     36 H11        -9.0198   -1.5501    4.6905 H         1 <0>         0.1380
     37 H12        -6.4911    1.5133    6.2485 H         1 <0>         0.1373
     38 H13        -5.8450    2.1500    3.9607 H         1 <0>         0.1497
@<TRIPOS>BOND
     1    1   10 ar
     2    1    2 ar
     3    1   26 1
     4    2    3 ar
     5    2   27 1
     6    3    8 ar
     7    3    4 ar
     8    4    5 ar
     9    4   28 1
    10    5    6 ar
    11    5   29 1
    12    6    7 ar
    13    6   30 1
    14    7   12 1
    15    7    8 ar
    16    8    9 ar
    17    9   10 ar
    18    9   11 1
    19   10   31 1
    20   11   12 1
    21   11   15 1
    22   12   13 2
    23   12   14 2
    24   15   16 1
    25   15   32 1
    26   15   33 1
    27   16   17 2
    28   16   18 am
    29   18   19 1
    30   18   34 1
    31   19   24 ar
    32   19   20 ar
    33   20   21 ar
    34   20   35 1
    35   21   22 ar
    36   21   36 1
    37   22   23 ar
    38   22   25 1
    39   23   24 ar
    40   23   37 1
    41   24   38 1
@<TRIPOS>MOLECULE
ZINC33302031
   51    53     0     0     0
SMALL
USER_CHARGES
2-(2-tert-butyl-5-methyl-3-oxo-indazol-1-yl)-N-(2-chloro-4-methyl-phenyl)acetamide
@<TRIPOS>ATOM
      1 C1         -5.2763    2.5747   -0.5730 C.3       1 <0>        -0.1096
      2 C2         -3.7968    2.8574   -0.5261 C.ar      1 <0>        -0.1406
      3 C3         -3.3285    4.1307   -0.8102 C.ar      1 <0>        -0.0429
      4 C4         -1.9773    4.4084   -0.7627 C.ar      1 <0>        -0.1626
      5 C5         -1.0745    3.4041   -0.4414 C.ar      1 <0>         0.2127
      6 C6         -1.5482    2.1125   -0.1571 C.ar      1 <0>        -0.2237
      7 C7         -2.9155    1.8482   -0.2002 C.ar      1 <0>        -0.0051
      8 C8         -0.3645    1.2886    0.1462 C.2       1 <0>         0.5615
      9 O1         -0.3630    0.1097    0.4442 O.2       1 <0>        -0.5195
     10 N1          0.7169    2.0850    0.0258 N.am      1 <0>        -0.3953
     11 N2          0.3068    3.3736   -0.3305 N.pl3     1 <0>        -0.3955
     12 C9          1.1988    4.5144   -0.5521 C.3       1 <0>         0.1158
     13 C10         1.4643    4.6652   -2.0278 C.2       1 <0>         0.4886
     14 O2          0.9582    3.8956   -2.8168 O.2       1 <0>        -0.4909
     15 N3          2.2641    5.6554   -2.4709 N.am      1 <0>        -0.6825
     16 C11         2.4153    5.8708   -3.8457 C.ar      1 <0>         0.1590
     17 C12         1.3769    5.5667   -4.7160 C.ar      1 <0>        -0.1103
     18 C13         1.5290    5.7803   -6.0720 C.ar      1 <0>        -0.0935
     19 C14         2.7139    6.2965   -6.5641 C.ar      1 <0>        -0.0883
     20 C15         3.7503    6.6006   -5.7010 C.ar      1 <0>        -0.0912
     21 C16         3.6027    6.3947   -4.3421 C.ar      1 <0>        -0.0625
     22 Cl1         4.9016    6.7834   -3.2579 Cl        1 <0>        -0.0647
     23 C17         2.8756    6.5284   -8.0443 C.3       1 <0>        -0.1171
     24 C18         2.1049    1.6655    0.2348 C.3       1 <0>         0.1818
     25 C19         2.1529    0.1518    0.4524 C.3       1 <0>        -0.1457
     26 C20         2.9387    2.0307   -0.9950 C.3       1 <0>        -0.1650
     27 C21         2.6726    2.3759    1.4651 C.3       1 <0>        -0.1663
     28 H1         -5.8164    3.4925   -0.8485 H         1 <0>         0.0657
     29 H2         -5.6157    2.2323    0.4157 H         1 <0>         0.0685
     30 H3         -5.4767    1.7930   -1.3205 H         1 <0>         0.0682
     31 H4         -4.0275    4.9140   -1.0639 H         1 <0>         0.1328
     32 H5         -1.6217    5.4031   -0.9874 H         1 <0>         0.1235
     33 H6         -3.2835    0.8572    0.0210 H         1 <0>         0.1315
     34 H7          0.7248    5.4302   -0.1694 H         1 <0>         0.1292
     35 H8          2.1488    4.3451   -0.0240 H         1 <0>         0.1276
     36 H9          2.7981    6.2943   -1.7521 H         1 <0>         0.4362
     37 H10         0.4510    5.1639   -4.3328 H         1 <0>         0.1456
     38 H11         0.7214    5.5441   -6.7491 H         1 <0>         0.1328
     39 H12         4.6744    7.0036   -6.0884 H         1 <0>         0.1374
     40 H13         3.8761    6.9396   -8.2438 H         1 <0>         0.0684
     41 H14         2.1111    7.2400   -8.3896 H         1 <0>         0.0743
     42 H15         2.7575    5.5749   -8.5799 H         1 <0>         0.0738
     43 H16         3.1951   -0.1632    0.6093 H         1 <0>         0.0734
     44 H17         1.7447   -0.3589   -0.4322 H         1 <0>         0.0708
     45 H18         1.5534   -0.1107    1.3365 H         1 <0>         0.0825
     46 H19         3.9809    1.7157   -0.8381 H         1 <0>         0.0793
     47 H20         2.9041    3.1190   -1.1514 H         1 <0>         0.0531
     48 H21         2.5305    1.5199   -1.8796 H         1 <0>         0.0698
     49 H22         3.7148    2.0609    1.6220 H         1 <0>         0.0810
     50 H23         2.0731    2.1134    2.3492 H         1 <0>         0.0701
     51 H24         2.6381    3.4642    1.3086 H         1 <0>         0.0578
@<TRIPOS>BOND
     1    1    2 1
     2    1   28 1
     3    1   29 1
     4    1   30 1
     5    2    7 ar
     6    2    3 ar
     7    3    4 ar
     8    3   31 1
     9    4    5 ar
    10    4   32 1
    11    5   11 1
    12    5    6 ar
    13    6    7 ar
    14    6    8 1
    15    7   33 1
    16    8    9 2
    17    8   10 am
    18   10   11 1
    19   10   24 1
    20   11   12 1
    21   12   13 1
    22   12   34 1
    23   12   35 1
    24   13   14 2
    25   13   15 am
    26   15   16 1
    27   15   36 1
    28   16   21 ar
    29   16   17 ar
    30   17   18 ar
    31   17   37 1
    32   18   19 ar
    33   18   38 1
    34   19   20 ar
    35   19   23 1
    36   20   21 ar
    37   20   39 1
    38   21   22 1
    39   23   40 1
    40   23   41 1
    41   23   42 1
    42   24   25 1
    43   24   26 1
    44   24   27 1
    45   25   43 1
    46   25   44 1
    47   25   45 1
    48   26   46 1
    49   26   47 1
    50   26   48 1
    51   27   49 1
    52   27   50 1
    53   27   51 1
@<TRIPOS>MOLECULE
ZINC45942879
   43    46     0     0     0
SMALL
USER_CHARGES

@<TRIPOS>ATOM
      1 C1         -1.5122   -2.3648   -2.2481 C.3       1 <0>        -0.1155
      2 C2         -0.7065   -1.8571   -1.0801 C.ar      1 <0>        -0.0618
      3 C3          0.0249   -0.6898   -1.2009 C.ar      1 <0>        -0.1336
      4 C4          0.7652   -0.2204   -0.1314 C.ar      1 <0>        -0.0620
      5 C5          0.7761   -0.9166    1.0614 C.ar      1 <0>        -0.1262
      6 C6          0.0426   -2.0893    1.1859 C.ar      1 <0>         0.1501
      7 C7         -0.7039   -2.5552    0.1116 C.ar      1 <0>        -0.1499
      8 N1          0.0520   -2.7973    2.3928 N.am      1 <0>        -0.6671
      9 C8          0.1502   -2.1344    3.5622 C.2       1 <0>         0.4992
     10 O1          0.1340   -0.9217    3.5751 O.2       1 <0>        -0.5007
     11 C9          0.2800   -2.9001    4.8537 C.3       1 <0>         0.0798
     12 N2          0.3696   -1.9586    5.9726 N.am      1 <0>        -0.5151
     13 C10         1.5774   -1.4963    6.3860 C.2       1 <0>         0.3860
     14 N3          1.7154   -0.6633    7.3692 N.2       1 <0>        -0.4954
     15 C11         0.6464   -0.1842    8.0682 C.2       1 <0>         0.1915
     16 C12         0.6652    0.7602    9.1995 C.ar      1 <0>        -0.0866
     17 C13        -0.5898    1.0902    9.7419 C.ar      1 <0>        -0.0905
     18 C14        -0.7251    1.9617   10.8044 C.ar      1 <0>        -0.0810
     19 C15         0.3984    2.5364   11.3639 C.ar      1 <0>        -0.0603
     20 C16         1.6509    2.2303   10.8506 C.ar      1 <0>        -0.1233
     21 C17         1.7966    1.3659    9.7955 C.ar      1 <0>         0.0300
     22 Cl1         3.3831    1.0121    9.1860 Cl        1 <0>        -0.0355
     23 S1         -1.7474    0.1645    8.7658 S.3       1 <0>         0.1665
     24 C18        -0.6088   -0.6379    7.6699 C.2       1 <0>        -0.2913
     25 C19        -0.7518   -1.5352    6.6028 C.2       1 <0>         0.5822
     26 O2         -1.8533   -1.9264    6.2547 O.2       1 <0>        -0.5143
     27 C20         1.5612    1.0520   -0.2675 C.3       1 <0>        -0.1153
     28 H1         -2.5159   -1.9417   -2.2084 H         1 <0>         0.0727
     29 H2         -1.0292   -2.0679   -3.1791 H         1 <0>         0.0691
     30 H3         -1.5741   -3.4520   -2.2016 H         1 <0>         0.0675
     31 H4          0.0183   -0.1437   -2.1327 H         1 <0>         0.1242
     32 H5          1.3547   -0.5497    1.8962 H         1 <0>         0.1321
     33 H6         -1.2786   -3.4646    0.2066 H         1 <0>         0.1260
     34 H7         -0.0122   -3.7651    2.3878 H         1 <0>         0.4142
     35 H8         -0.5924   -3.5399    4.9861 H         1 <0>         0.1378
     36 H9          1.1798   -3.5145    4.8229 H         1 <0>         0.1374
     37 H10         2.4636   -1.8387    5.8723 H         1 <0>         0.2085
     38 H11        -1.7049    2.1929   11.1954 H         1 <0>         0.1464
     39 H12         0.3034    3.2196   12.1950 H         1 <0>         0.1507
     40 H13         2.5281    2.6814   11.2904 H         1 <0>         0.1449
     41 H14         0.9421    1.9007    0.0230 H         1 <0>         0.0729
     42 H15         2.4375    1.0032    0.3789 H         1 <0>         0.0669
     43 H16         1.8797    1.1722   -1.3030 H         1 <0>         0.0688
@<TRIPOS>BOND
     1    1    2 1
     2    1   28 1
     3    1   29 1
     4    1   30 1
     5    2    7 ar
     6    2    3 ar
     7    3    4 ar
     8    3   31 1
     9    4    5 ar
    10    4   27 1
    11    5    6 ar
    12    5   32 1
    13    6    7 ar
    14    6    8 1
    15    7   33 1
    16    8    9 am
    17    8   34 1
    18    9   10 2
    19    9   11 1
    20   11   12 1
    21   11   35 1
    22   11   36 1
    23   12   25 am
    24   12   13 1
    25   13   14 2
    26   13   37 1
    27   14   15 1
    28   15   24 2
    29   15   16 1
    30   16   21 ar
    31   16   17 ar
    32   17   18 ar
    33   17   23 1
    34   18   19 ar
    35   18   38 1
    36   19   20 ar
    37   19   39 1
    38   20   21 ar
    39   20   40 1
    40   21   22 1
    41   23   24 1
    42   24   25 1
    43   25   26 2
    44   27   41 1
    45   27   42 1
    46   27   43 1
@<TRIPOS>MOLECULE
ZINC64460428
   41    44     0     0     0
SMALL
USER_CHARGES

@<TRIPOS>ATOM
      1 C1          0.8584   -0.8535   -0.9039 C.3       1 <0>        -0.1488
      2 C2         -0.0072    0.0210    0.0054 C.3       1 <0>        -0.0862
      3 C3         -1.4186   -0.5073    0.0152 C.ar      1 <0>        -0.0870
      4 C4         -2.3327   -0.0506   -0.9165 C.ar      1 <0>        -0.0977
      5 C5         -3.6269   -0.5327   -0.9102 C.ar      1 <0>        -0.1132
      6 C6         -4.0097   -1.4775    0.0329 C.ar      1 <0>         0.1311
      7 C7         -3.0891   -1.9345    0.9669 C.ar      1 <0>        -0.1312
      8 C8         -1.7951   -1.4519    0.9522 C.ar      1 <0>        -0.0980
      9 N1         -5.3202   -1.9677    0.0423 N.am      1 <0>        -0.6518
     10 C9         -5.9970   -2.1041   -1.1152 C.2       1 <0>         0.5474
     11 O1         -5.4399   -1.8936   -2.1718 O.2       1 <0>        -0.4799
     12 C10        -7.4459   -2.5182   -1.0966 C.3       1 <0>        -0.0810
     13 H1         -7.6846   -3.0667   -0.1854 H         1 <0>         0.1932
     14 C11        -7.8061   -3.3342   -2.3461 C.2       1 <0>         0.4533
     15 N2         -7.2375   -4.4955   -2.6199 N.2       1 <0>        -0.5307
     16 C12        -7.5288   -5.2313   -3.6999 C.2       1 <0>         0.5440
     17 O2         -6.9765   -6.2975   -3.9083 O.2       1 <0>        -0.4284
     18 C13        -8.5442   -4.7004   -4.6260 C.ar      1 <0>        -0.1839
     19 C14        -8.9243   -5.3832   -5.7801 C.ar      1 <0>        -0.0216
     20 C15        -9.8741   -4.8366   -6.5998 C.ar      1 <0>        -0.1134
     21 C16       -10.4569   -3.6146   -6.2903 C.ar      1 <0>         0.0193
     22 C17       -10.0894   -2.9266   -5.1499 C.ar      1 <0>        -0.1651
     23 C18        -9.1272   -3.4701   -4.3092 C.ar      1 <0>         0.1384
     24 N3         -8.7418   -2.7811   -3.1420 N.pl3     1 <0>        -0.4527
     25 C19        -9.3144   -1.5767   -2.8351 C.2       1 <0>         0.2438
     26 S1        -10.5092   -0.7368   -3.7283 S.2       1 <0>        -0.2337
     27 S2         -8.5524   -1.0703   -1.3087 S.3       1 <0>         0.0848
     28 Cl1       -11.6593   -2.9442   -7.3478 Cl        1 <0>        -0.0355
     29 H2          1.8792   -0.4714   -0.9110 H         1 <0>         0.0594
     30 H3          0.8565   -1.8780   -0.5317 H         1 <0>         0.0561
     31 H4          0.4561   -0.8342   -1.9168 H         1 <0>         0.0561
     32 H5          0.3950    0.0017    1.0182 H         1 <0>         0.0734
     33 H6         -0.0053    1.0455   -0.3669 H         1 <0>         0.0732
     34 H7         -2.0344    0.6842   -1.6497 H         1 <0>         0.1277
     35 H8         -4.3406   -0.1751   -1.6376 H         1 <0>         0.1337
     36 H9         -3.3839   -2.6689    1.7018 H         1 <0>         0.1294
     37 H10        -1.0777   -1.8099    1.6757 H         1 <0>         0.1292
     38 H11        -5.7416   -2.2093    0.8819 H         1 <0>         0.4170
     39 H12        -8.4741   -6.3339   -6.0248 H         1 <0>         0.1612
     40 H13       -10.1730   -5.3602   -7.4959 H         1 <0>         0.1532
     41 H14       -10.5457   -1.9764   -4.9148 H         1 <0>         0.2151
@<TRIPOS>BOND
     1    1    2 1
     2    1   29 1
     3    1   30 1
     4    1   31 1
     5    2    3 1
     6    2   32 1
     7    2   33 1
     8    3    8 ar
     9    3    4 ar
    10    4    5 ar
    11    4   34 1
    12    5    6 ar
    13    5   35 1
    14    6    7 ar
    15    6    9 1
    16    7    8 ar
    17    7   36 1
    18    8   37 1
    19    9   10 am
    20    9   38 1
    21   10   11 2
    22   10   12 1
    23   12   13 1
    24   12   27 1
    25   12   14 1
    26   14   24 1
    27   14   15 2
    28   15   16 1
    29   16   17 2
    30   16   18 1
    31   18   23 ar
    32   18   19 ar
    33   19   20 ar
    34   19   39 1
    35   20   21 ar
    36   20   40 1
    37   21   22 ar
    38   21   28 1
    39   22   23 ar
    40   22   41 1
    41   23   24 1
    42   24   25 1
    43   25   26 2
    44   25   27 1
@<TRIPOS>MOLECULE
ZINC14999430
   60    64     0     0     0
SMALL
USER_CHARGES
5-[(3-fluorophenyl)methyl]-7-[[[(2R)-2-hydroxy-2-phenyl-ethyl]-methyl-amino]methyl]-[1,3]dioxolo[4,5-g]quinolin-6-one
@<TRIPOS>ATOM
      1 C1          0.0028    6.4041   -3.4799 C.3       1 <0>        -0.0408
      2 C2          2.3250    6.8730   -3.9800 C.3       1 <0>         0.0715
      3 C3          2.8124    5.6043   -3.3290 C.2       1 <0>        -0.2786
      4 C4          3.6002    4.7462   -4.0260 C.2       1 <0>         0.0678
      5 C5          4.0564    3.5233   -3.3668 C.ar      1 <0>        -0.1488
      6 C6          4.8717    2.6024   -4.0370 C.ar      1 <0>        -0.0309
      7 C7          5.2848    1.4588   -3.3902 C.ar      1 <0>         0.0124
      8 C8          4.8925    1.2150   -2.0678 C.ar      1 <0>         0.1268
      9 C9          4.0883    2.1191   -1.3985 C.ar      1 <0>        -0.1666
     10 C10         3.6681    3.2801   -2.0350 C.ar      1 <0>         0.2233
     11 N1          2.8611    4.1912   -1.3838 N.am      1 <0>        -0.5000
     12 C11         2.4481    5.3129   -1.9990 C.2       1 <0>         0.5449
     13 O1          1.7403    6.0978   -1.3912 O.2       1 <0>        -0.5313
     14 C12         2.4536    3.9349   -0.0002 C.3       1 <0>         0.1325
     15 C13         1.1579    3.1654    0.0075 C.ar      1 <0>        -0.0940
     16 C14         1.1751    1.7829    0.0004 C.ar      1 <0>        -0.1143
     17 C15        -0.0126    1.0758    0.0080 C.ar      1 <0>        -0.0860
     18 C16        -1.2190    1.7503    0.0173 C.ar      1 <0>        -0.1389
     19 C17        -1.2374    3.1345    0.0298 C.ar      1 <0>         0.0980
     20 C18        -0.0469    3.8418    0.0222 C.ar      1 <0>        -0.1313
     21 F1         -2.4160    3.7948    0.0441 F         1 <0>        -0.1349
     22 O2          5.4320    0.0271   -1.6688 O.3       1 <0>        -0.2936
     23 C19         6.4879   -0.2517   -2.6065 C.3       1 <0>         0.2101
     24 O3          6.0683    0.4209   -3.8082 O.3       1 <0>        -0.2970
     25 C20         0.5762    7.7822   -5.3864 C.3       1 <0>        -0.0379
     26 C21        -0.6984    7.4139   -6.1484 C.3       1 <0>         0.1339
     27 H1         -1.4926    7.1837   -5.4382 H         1 <0>         0.1304
     28 C22        -1.1191    8.5737   -7.0139 C.ar      1 <0>        -0.1411
     29 C23        -0.5662    8.7345   -8.2706 C.ar      1 <0>        -0.1074
     30 C24        -0.9553    9.7959   -9.0662 C.ar      1 <0>        -0.1116
     31 C25        -1.8901   10.7018   -8.6013 C.ar      1 <0>        -0.1000
     32 C26        -2.4394   10.5438   -7.3427 C.ar      1 <0>        -0.1117
     33 C27        -2.0536    9.4799   -6.5488 C.ar      1 <0>        -0.1021
     34 O4         -0.4488    6.2720   -6.9705 O.3       1 <0>        -0.5478
     35 H2         -0.0364    7.2656   -2.8132 H         1 <0>         0.1304
     36 H3         -0.9796    6.2434   -3.9240 H         1 <0>         0.1157
     37 H4          0.2946    5.5195   -2.9137 H         1 <0>         0.1182
     38 H5          2.2795    7.6687   -3.2364 H         1 <0>         0.1463
     39 H6          3.0112    7.1593   -4.7770 H         1 <0>         0.1376
     40 H7          3.8836    4.9620   -5.0456 H         1 <0>         0.1593
     41 H8          5.1753    2.7885   -5.0566 H         1 <0>         0.1568
     42 H9          3.7900    1.9244   -0.3789 H         1 <0>         0.1557
     43 H10         2.3163    4.8830    0.5197 H         1 <0>         0.1203
     44 H11         3.2250    3.3526    0.5038 H         1 <0>         0.1096
     45 H12         2.1172    1.2550   -0.0107 H         1 <0>         0.1309
     46 H13         0.0021   -0.0041    0.0020 H         1 <0>         0.1399
     47 H14        -2.1469    1.1976    0.0191 H         1 <0>         0.1414
     48 H15        -0.0601    4.9217    0.0274 H         1 <0>         0.1429
     49 H16         7.4338    0.1562   -2.2501 H         1 <0>         0.0988
     50 H17         6.5752   -1.3248   -2.7766 H         1 <0>         0.1459
     51 H18         0.3858    8.6532   -4.7593 H         1 <0>         0.1448
     52 H19         1.3704    8.0124   -6.0965 H         1 <0>         0.1337
     53 H20         0.1672    8.0290   -8.6322 H         1 <0>         0.1219
     54 H21        -0.5263    9.9192  -10.0497 H         1 <0>         0.1312
     55 H22        -2.1916   11.5330   -9.2216 H         1 <0>         0.1315
     56 H23        -3.1698   11.2516   -6.9795 H         1 <0>         0.1319
     57 H24        -2.4825    9.3566   -5.5653 H         1 <0>         0.1272
     58 H25         0.2481    6.4052   -7.6275 H         1 <0>         0.3866
     59 N2          0.9874    6.6283   -4.5593 N.4       1 <0>        -0.3913
     60 H26         1.0288    5.7909   -5.1521 H         1 <0>         0.4276
@<TRIPOS>BOND
     1    1   35 1
     2    1   36 1
     3    1   37 1
     4    1   59 1
     5    2    3 1
     6    2   38 1
     7    2   39 1
     8    2   59 1
     9    3   12 1
    10    3    4 2
    11    4    5 1
    12    4   40 1
    13    5   10 ar
    14    5    6 ar
    15    6    7 ar
    16    6   41 1
    17    7   24 1
    18    7    8 ar
    19    8    9 ar
    20    8   22 1
    21    9   10 ar
    22    9   42 1
    23   10   11 1
    24   11   12 am
    25   11   14 1
    26   12   13 2
    27   14   15 1
    28   14   43 1
    29   14   44 1
    30   15   20 ar
    31   15   16 ar
    32   16   17 ar
    33   16   45 1
    34   17   18 ar
    35   17   46 1
    36   18   19 ar
    37   18   47 1
    38   19   20 ar
    39   19   21 1
    40   20   48 1
    41   22   23 1
    42   23   24 1
    43   23   49 1
    44   23   50 1
    45   25   26 1
    46   25   51 1
    47   25   52 1
    48   25   59 1
    49   26   27 1
    50   26   28 1
    51   26   34 1
    52   28   33 ar
    53   28   29 ar
    54   29   30 ar
    55   29   53 1
    56   30   31 ar
    57   30   54 1
    58   31   32 ar
    59   31   55 1
    60   32   33 ar
    61   32   56 1
    62   33   57 1
    63   34   58 1
    64   59   60 1
@<TRIPOS>MOLECULE
ZINC04374466
   55    59     0     0     0
SMALL
USER_CHARGES

@<TRIPOS>ATOM
      1 C1         -1.1122    1.2238    0.1746 C.ar      1 <0>        -0.0927
      2 C2         -0.1046    2.1687    0.1256 C.ar      1 <0>        -0.0847
      3 C3          1.2154    1.7675    0.0261 C.ar      1 <0>        -0.0801
      4 C4          1.5265    0.4206   -0.0243 C.ar      1 <0>        -0.0843
      5 C5          0.5183   -0.5236    0.0248 C.ar      1 <0>        -0.1106
      6 C6         -0.8008   -0.1222    0.1242 C.ar      1 <0>        -0.1105
      7 C7         -1.8996   -1.1521    0.1777 C.3       1 <0>         0.1914
      8 H1         -2.8476   -0.6909   -0.0991 H         1 <0>         0.1302
      9 C8         -2.0002   -1.7249    1.5961 C.3       1 <0>        -0.1513
     10 C9         -0.6509   -2.3221    2.0118 C.3       1 <0>         0.1226
     11 H2          0.0708   -1.5203    2.1678 H         1 <0>         0.1402
     12 N1         -0.1765   -3.2094    0.9449 N.pl3     1 <0>        -0.3984
     13 C10        -0.6306   -3.1595   -0.3301 C.2       1 <0>         0.4454
     14 C11         0.0334   -4.1359   -1.0486 C.2       1 <0>        -0.3681
     15 C12         0.9150   -4.7800   -0.1440 C.2       1 <0>         0.1054
     16 N2          0.7789   -4.2208    1.0279 N.2       1 <0>        -0.2675
     17 C13        -0.1406   -4.4460   -2.4726 C.2       1 <0>         0.6173
     18 O1         -0.3270   -3.5482   -3.2725 O.2       1 <0>        -0.5212
     19 N3         -0.0938   -5.7253   -2.8943 N.am      1 <0>        -0.6315
     20 C14         0.0015   -6.8219   -1.9219 C.3       1 <0>         0.0795
     21 C15        -1.0028   -7.9297   -2.2830 C.3       1 <0>        -0.0142
     22 N4         -0.8015   -8.2738   -3.6838 N.4       1 <0>        -0.3933
     23 C16        -1.5963   -9.3994   -4.1798 C.3       1 <0>        -0.0092
     24 C17        -1.8483   -9.1144   -5.6802 C.3       1 <0>        -0.1426
     25 C18        -1.2226   -7.7154   -5.9339 C.3       1 <0>        -0.1403
     26 C19        -1.2049   -7.1106   -4.5187 C.3       1 <0>         0.0212
     27 H3         -2.1925   -6.7462   -4.2359 H         1 <0>         0.1475
     28 C20        -0.1441   -6.0355   -4.3377 C.3       1 <0>         0.0978
     29 N5         -1.5927   -2.2538   -0.7555 N.pl3     1 <0>        -0.7017
     30 C21        -0.8202   -3.1187    3.3071 C.3       1 <0>         0.4587
     31 F1         -1.7424   -4.1506    3.1028 F         1 <0>        -0.1746
     32 F2          0.4123   -3.6627    3.6844 F         1 <0>        -0.1573
     33 F3         -1.2851   -2.2711    4.3184 F         1 <0>        -0.1671
     34 Br1         2.5942    3.0599   -0.0416 Br        1 <0>        -0.0348
     35 H4         -2.1425    1.5369    0.2568 H         1 <0>         0.1397
     36 H5         -0.3480    3.2202    0.1647 H         1 <0>         0.1411
     37 H6          2.5570    0.1069   -0.1024 H         1 <0>         0.1353
     38 H7          0.7611   -1.5752   -0.0146 H         1 <0>         0.1279
     39 H8         -2.2735   -0.9296    2.2895 H         1 <0>         0.1301
     40 H9         -2.7633   -2.5028    1.6194 H         1 <0>         0.1064
     41 H10         1.5841   -5.5934   -0.3832 H         1 <0>         0.1950
     42 H11         1.0118   -7.2308   -1.9350 H         1 <0>         0.0964
     43 H12        -0.2213   -6.4421   -0.9248 H         1 <0>         0.1361
     44 H13        -0.8265   -8.8056   -1.6586 H         1 <0>         0.1442
     45 H14        -2.0203   -7.5683   -2.1342 H         1 <0>         0.1325
     46 H15        -1.0424  -10.3308   -4.0624 H         1 <0>         0.1348
     47 H16        -2.5438   -9.4551   -3.6439 H         1 <0>         0.1298
     48 H17        -1.3563   -9.8668   -6.2966 H         1 <0>         0.1074
     49 H18        -2.9182   -9.0941   -5.8875 H         1 <0>         0.1058
     50 H19        -0.2115   -7.8074   -6.3305 H         1 <0>         0.1032
     51 H20        -1.8490   -7.1243   -6.6019 H         1 <0>         0.1213
     52 H21        -0.4173   -5.1438   -4.9020 H         1 <0>         0.1385
     53 H22         0.8233   -6.4093   -4.6733 H         1 <0>         0.0972
     54 H23        -2.0394   -2.3391   -1.6123 H         1 <0>         0.4334
     55 H24         0.1751   -8.4724   -3.8414 H         1 <0>         0.4226
@<TRIPOS>BOND
     1    1    6 ar
     2    1    2 ar
     3    1   35 1
     4    2    3 ar
     5    2   36 1
     6    3    4 ar
     7    3   34 1
     8    4    5 ar
     9    4   37 1
    10    5    6 ar
    11    5   38 1
    12    6    7 1
    13    7    8 1
    14    7   29 1
    15    7    9 1
    16    9   10 1
    17    9   39 1
    18    9   40 1
    19   10   11 1
    20   10   12 1
    21   10   30 1
    22   12   16 1
    23   12   13 1
    24   13   14 2
    25   13   29 1
    26   14   15 1
    27   14   17 1
    28   15   16 2
    29   15   41 1
    30   17   18 2
    31   17   19 am
    32   19   28 1
    33   19   20 1
    34   20   21 1
    35   20   42 1
    36   20   43 1
    37   21   22 1
    38   21   44 1
    39   21   45 1
    40   22   26 1
    41   22   23 1
    42   22   55 1
    43   23   24 1
    44   23   46 1
    45   23   47 1
    46   24   25 1
    47   24   48 1
    48   24   49 1
    49   25   26 1
    50   25   50 1
    51   25   51 1
    52   26   27 1
    53   26   28 1
    54   28   52 1
    55   28   53 1
    56   29   54 1
    57   30   31 1
    58   30   32 1
    59   30   33 1
@<TRIPOS>MOLECULE
ZINC40049753
   64    69     0     0     0
SMALL
USER_CHARGES

@<TRIPOS>ATOM
      1 C1          0.5915   -0.0156   -1.5708 C.ar      1 <0>        -0.1118
      2 C2          1.7263    0.7715   -1.5040 C.ar      1 <0>        -0.1196
      3 C3          2.9443    0.1922   -1.2140 C.ar      1 <0>        -0.1158
      4 C4          3.0383   -1.1739   -0.9851 C.ar      1 <0>        -0.1030
      5 C5          1.9078   -1.9575   -1.0417 C.ar      1 <0>        -0.0638
      6 C6          0.6834   -1.3725   -1.3417 C.ar      1 <0>        -0.1162
      7 C7          1.9269   -3.4397   -0.7753 C.3       1 <0>        -0.0985
      8 C8          3.3368   -4.0043   -0.9415 C.3       1 <0>         0.1130
      9 N1          4.2658   -3.1259   -0.2114 N.am      1 <0>        -0.6105
     10 C9          4.4019   -1.7452   -0.6875 C.3       1 <0>         0.1551
     11 C10         4.9631   -3.5726    0.8519 C.2       1 <0>         0.5430
     12 O1          4.8319   -4.7192    1.2249 O.2       1 <0>        -0.5104
     13 C11         5.9060   -2.6475    1.5772 C.3       1 <0>        -0.1095
     14 S1          6.6884   -3.5370    2.9510 S.3       1 <0>        -0.1230
     15 C12         7.7773   -2.3010    3.7107 C.3       1 <0>         0.3646
     16 H1          8.3161   -2.7350    4.5529 H         1 <0>         0.1321
     17 N2          8.7216   -1.7657    2.7160 N.pl3     1 <0>        -0.5820
     18 N3          8.4653   -0.3928    2.6230 N.2       1 <0>        -0.1691
     19 C13         7.4979   -0.0350    3.4254 C.2       1 <0>         0.2509
     20 N4          7.0007   -1.1283    4.1454 N.pl3     1 <0>        -0.6316
     21 C14         5.9208   -1.1109    5.1352 C.3       1 <0>         0.1313
     22 C15         4.5717   -1.2057    4.4198 C.3       1 <0>         0.0456
     23 H2          4.4990   -0.4247    3.6630 H         1 <0>         0.0661
     24 C16         3.4250   -1.0528    5.4421 C.3       1 <0>        -0.1497
     25 C17         2.3866   -2.0878    4.9298 C.3       1 <0>        -0.1546
     26 C18         3.3211   -3.1944    4.3796 C.3       1 <0>         0.0494
     27 O2          4.4371   -2.4923    3.8048 O.3       1 <0>        -0.3388
     28 C19         7.0195    1.2781    3.5516 C.2       1 <0>         0.1358
     29 C20         7.4064    2.3922    2.8060 C.ar      1 <0>        -0.1460
     30 C21         8.3345    2.5612    1.7566 C.ar      1 <0>        -0.0087
     31 C22         8.5099    3.7891    1.2038 C.ar      1 <0>        -0.1515
     32 C23         7.7910    4.9007    1.6484 C.ar      1 <0>         0.0470
     33 C24         6.8836    4.8111    2.6519 C.ar      1 <0>        -0.2054
     34 C25         6.6459    3.5606    3.2784 C.ar      1 <0>         0.3140
     35 N5          5.8313    3.2160    4.2566 N.pl3     1 <0>        -0.6021
     36 C26         5.9717    1.7806    4.5202 C.3       1 <0>         0.0749
     37 H3         -0.3650    0.4316   -1.7974 H         1 <0>         0.1261
     38 H4          1.6595    1.8352   -1.6785 H         1 <0>         0.1245
     39 H5          3.8315    0.8061   -1.1649 H         1 <0>         0.1192
     40 H6         -0.2040   -1.9857   -1.3955 H         1 <0>         0.1254
     41 H7          1.5841   -3.6253    0.2427 H         1 <0>         0.0819
     42 H8          1.2563   -3.9383   -1.4750 H         1 <0>         0.0915
     43 H9          3.3813   -5.0122   -0.5290 H         1 <0>         0.1027
     44 H10         3.6032   -4.0256   -1.9983 H         1 <0>         0.0785
     45 H11         5.0065   -1.7321   -1.5943 H         1 <0>         0.0835
     46 H12         4.8877   -1.1431    0.0803 H         1 <0>         0.0835
     47 H13         6.6736   -2.2969    0.8873 H         1 <0>         0.0952
     48 H14         5.3502   -1.7944    1.9664 H         1 <0>         0.1117
     49 H15         9.3902   -2.2661    2.2226 H         1 <0>         0.4667
     50 H16         6.0340   -1.9585    5.8112 H         1 <0>         0.1107
     51 H17         5.9654   -0.1830    5.7053 H         1 <0>         0.0863
     52 H18         3.7639   -1.3077    6.4462 H         1 <0>         0.0866
     53 H19         3.0131   -0.0440    5.4149 H         1 <0>         0.0809
     54 H20         1.7709   -2.4639    5.7468 H         1 <0>         0.0880
     55 H21         1.7689   -1.6653    4.1372 H         1 <0>         0.0768
     56 H22         3.6572   -3.8426    5.1889 H         1 <0>         0.0668
     57 H23         2.8077   -3.7776    3.6151 H         1 <0>         0.0849
     58 H24         8.9033    1.7175    1.3947 H         1 <0>         0.1602
     59 H25         9.2227    3.9090    0.4013 H         1 <0>         0.1552
     60 H26         7.9628    5.8586    1.1800 H         1 <0>         0.1600
     61 H27         6.3435    5.6893    2.9736 H         1 <0>         0.1598
     62 H28         5.0243    1.2704    4.3461 H         1 <0>         0.1664
     63 H29         6.3018    1.6204    5.5466 H         1 <0>         0.1718
     64 H30         5.2308    3.8167    4.7249 H         1 <0>         0.4543
@<TRIPOS>BOND
     1    1    6 ar
     2    1    2 ar
     3    1   37 1
     4    2    3 ar
     5    2   38 1
     6    3    4 ar
     7    3   39 1
     8    4   10 1
     9    4    5 ar
    10    5    6 ar
    11    5    7 1
    12    6   40 1
    13    7    8 1
    14    7   41 1
    15    7   42 1
    16    8    9 1
    17    8   43 1
    18    8   44 1
    19    9   10 1
    20    9   11 am
    21   10   45 1
    22   10   46 1
    23   11   12 2
    24   11   13 1
    25   13   14 1
    26   13   47 1
    27   13   48 1
    28   14   15 1
    29   15   16 1
    30   15   20 1
    31   15   17 1
    32   17   18 1
    33   17   49 1
    34   18   19 2
    35   19   20 1
    36   19   28 1
    37   20   21 1
    38   21   22 1
    39   21   50 1
    40   21   51 1
    41   22   23 1
    42   22   27 1
    43   22   24 1
    44   24   25 1
    45   24   52 1
    46   24   53 1
    47   25   26 1
    48   25   54 1
    49   25   55 1
    50   26   27 1
    51   26   56 1
    52   26   57 1
    53   28   36 1
    54   28   29 2
    55   29   34 ar
    56   29   30 ar
    57   30   31 ar
    58   30   58 1
    59   31   32 ar
    60   31   59 1
    61   32   33 ar
    62   32   60 1
    63   33   34 ar
    64   33   61 1
    65   34   35 2
    66   35   36 1
    67   35   64 1
    68   36   62 1
    69   36   63 1
@<TRIPOS>MOLECULE
ZINC59060830
   68    71     0     0     0
SMALL
USER_CHARGES

@<TRIPOS>ATOM
      1 C1          1.7723    1.6682    1.1618 C.3       1 <0>        -0.1057
      2 C2          1.6791    0.1653    1.1018 C.2       1 <0>        -0.0679
      3 C3          1.8707   -0.4813   -0.0592 C.2       1 <0>        -0.1535
      4 S1          1.6607   -2.1956    0.3836 S.3       1 <0>         0.1525
      5 C4          1.3222   -1.9932    2.1135 C.2       1 <0>         0.0887
      6 C5          1.3872   -0.6005    2.2992 C.2       1 <0>        -0.2331
      7 C6          1.1522   -0.1424    3.6366 C.2       1 <0>         0.5525
      8 O1          1.1827    1.0478    3.8976 O.2       1 <0>        -0.5138
      9 N1          0.8969   -1.0472    4.5998 N.am      1 <0>        -0.5338
     10 C7          0.8591   -2.3770    4.3275 C.2       1 <0>         0.3723
     11 N2          1.0591   -2.8251    3.1170 N.2       1 <0>        -0.4795
     12 C8          0.6555   -0.5881    5.9699 C.3       1 <0>         0.1061
     13 C9         -0.8399   -0.3300    6.1651 C.3       1 <0>        -0.1621
     14 C10        -1.0883    0.1423    7.5745 C.2       1 <0>         0.5159
     15 O2         -0.1606    0.2608    8.3467 O.2       1 <0>        -0.5024
     16 N3         -2.3413    0.4331    7.9768 N.am      1 <0>        -0.7474
     17 C11        -2.5828    0.8922    9.3469 C.3       1 <0>         0.1408
     18 C12        -4.0663    1.0167    9.5808 C.ar      1 <0>        -0.0899
     19 C13        -4.6808    2.2511    9.4801 C.ar      1 <0>        -0.0912
     20 C14        -6.0413    2.3653    9.6947 C.ar      1 <0>        -0.0837
     21 C15        -6.7880    1.2451   10.0096 C.ar      1 <0>        -0.1017
     22 C16        -6.1739    0.0109   10.1093 C.ar      1 <0>        -0.0920
     23 C17        -4.8136   -0.1040    9.8905 C.ar      1 <0>        -0.1420
     24 C18        -4.1448   -1.4505    9.9940 C.3       1 <0>         0.0364
     25 N4         -3.9806   -2.0204    8.6501 N.4       1 <0>        -0.3840
     26 C19        -5.3014   -2.2983    8.0733 C.3       1 <0>        -0.0135
     27 C20        -5.1387   -2.8163    6.6427 C.3       1 <0>        -0.1099
     28 H1         -4.6309   -2.0642    6.0388 H         1 <0>         0.0885
     29 C21        -4.3078   -4.1025    6.6626 C.3       1 <0>        -0.1312
     30 C22        -2.9609   -3.8180    7.3335 C.3       1 <0>        -0.1102
     31 H2         -2.4078   -3.0867    6.7441 H         1 <0>         0.0868
     32 C23        -3.2042   -3.2629    8.7386 C.3       1 <0>        -0.0113
     33 C24        -2.1533   -5.1140    7.4280 C.3       1 <0>        -0.1522
     34 C25        -6.5168   -3.1064    6.0446 C.3       1 <0>        -0.1509
     35 C26         2.1868    0.1020   -1.4122 C.3       1 <0>        -0.0725
     36 H3          2.8003    1.9602    1.3764 H         1 <0>         0.0736
     37 H4          1.4673    2.0897    0.2040 H         1 <0>         0.0694
     38 H5          1.1168    2.0418    1.9484 H         1 <0>         0.0807
     39 H6          0.6517   -3.0759    5.1243 H         1 <0>         0.2124
     40 H7          0.9871   -1.3522    6.6729 H         1 <0>         0.1087
     41 H8          1.2095    0.3337    6.1471 H         1 <0>         0.1166
     42 H9         -1.1715    0.4342    5.4621 H         1 <0>         0.1132
     43 H10        -1.3939   -1.2518    5.9879 H         1 <0>         0.0969
     44 H11        -3.0833    0.3383    7.3592 H         1 <0>         0.3966
     45 H12        -2.1631    0.1731   10.0503 H         1 <0>         0.0892
     46 H13        -2.1091    1.8629    9.4936 H         1 <0>         0.0964
     47 H14        -4.0975    3.1262    9.2342 H         1 <0>         0.1395
     48 H15        -6.5212    3.3297    9.6168 H         1 <0>         0.1404
     49 H16        -7.8510    1.3345   10.1779 H         1 <0>         0.1401
     50 H17        -6.7570   -0.8641   10.3556 H         1 <0>         0.1360
     51 H18        -3.1671   -1.3356   10.4619 H         1 <0>         0.1381
     52 H19        -4.7607   -2.1166   10.5983 H         1 <0>         0.1406
     53 H20        -5.8095   -3.0510    8.6762 H         1 <0>         0.1323
     54 H21        -5.8927   -1.3827    8.0627 H         1 <0>         0.1303
     55 H22        -4.8393   -4.8711    7.2236 H         1 <0>         0.0865
     56 H23        -4.1411   -4.4446    5.6412 H         1 <0>         0.0973
     57 H24        -2.2473   -3.0595    9.2192 H         1 <0>         0.1302
     58 H25        -3.7570   -3.9950    9.3273 H         1 <0>         0.1341
     59 H26        -1.9836   -5.5102    6.4268 H         1 <0>         0.0808
     60 H27        -1.1948   -4.9109    7.9056 H         1 <0>         0.0701
     61 H28        -2.7061   -5.8443    8.0189 H         1 <0>         0.0697
     62 H29        -7.1084   -2.1911    6.0342 H         1 <0>         0.0684
     63 H30        -6.4002   -3.4753    5.0255 H         1 <0>         0.0789
     64 H31        -7.0234   -3.8597    6.6479 H         1 <0>         0.0690
     65 H32         3.2677    0.1729   -1.5338 H         1 <0>         0.0852
     66 H33         1.7751   -0.5408   -2.1902 H         1 <0>         0.0788
     67 H34         1.7464    1.0959   -1.4913 H         1 <0>         0.0873
     68 H35        -3.4918   -1.3607    8.0636 H         1 <0>         0.4080
@<TRIPOS>BOND
     1    1    2 1
     2    1   36 1
     3    1   37 1
     4    1   38 1
     5    2    6 1
     6    2    3 2
     7    3    4 1
     8    3   35 1
     9    4    5 1
    10    5   11 1
    11    5    6 2
    12    6    7 1
    13    7    8 2
    14    7    9 am
    15    9   10 1
    16    9   12 1
    17   10   11 2
    18   10   39 1
    19   12   13 1
    20   12   40 1
    21   12   41 1
    22   13   14 1
    23   13   42 1
    24   13   43 1
    25   14   15 2
    26   14   16 am
    27   16   17 1
    28   16   44 1
    29   17   18 1
    30   17   45 1
    31   17   46 1
    32   18   23 ar
    33   18   19 ar
    34   19   20 ar
    35   19   47 1
    36   20   21 ar
    37   20   48 1
    38   21   22 ar
    39   21   49 1
    40   22   23 ar
    41   22   50 1
    42   23   24 1
    43   24   25 1
    44   24   51 1
    45   24   52 1
    46   25   32 1
    47   25   26 1
    48   25   68 1
    49   26   27 1
    50   26   53 1
    51   26   54 1
    52   27   28 1
    53   27   29 1
    54   27   34 1
    55   29   30 1
    56   29   55 1
    57   29   56 1
    58   30   31 1
    59   30   32 1
    60   30   33 1
    61   32   57 1
    62   32   58 1
    63   33   59 1
    64   33   60 1
    65   33   61 1
    66   34   62 1
    67   34   63 1
    68   34   64 1
    69   35   65 1
    70   35   66 1
    71   35   67 1
@<TRIPOS>MOLECULE
ZINC63558006
   52    55     0     0     0
SMALL
USER_CHARGES

@<TRIPOS>ATOM
      1 C1         -0.0292    1.4174   -0.0477 C.3       1 <0>         0.0147
      2 O1         -0.0093   -0.0115   -0.0484 O.3       1 <0>        -0.3010
      3 C2         -1.2115   -0.6453   -0.0307 C.ar      1 <0>         0.1021
      4 C3         -2.3860    0.1273   -0.0188 C.ar      1 <0>        -0.0239
      5 C4         -3.6185   -0.4238   -0.0010 C.ar      1 <0>        -0.1591
      6 C5         -3.7633   -1.8830    0.0060 C.ar      1 <0>         0.3144
      7 N1         -4.8186   -2.6584    0.0230 N.pl3     1 <0>        -0.5724
      8 C6         -4.3719   -4.0561    0.0227 C.3       1 <0>         0.0613
      9 C7         -2.8604   -4.0085    0.0026 C.2       1 <0>         0.0537
     10 C8         -2.5266   -2.6982   -0.0070 C.ar      1 <0>        -0.1282
     11 C9         -1.2368   -1.9997   -0.0307 C.ar      1 <0>        -0.0912
     12 C10        -1.9170   -5.1837   -0.0055 C.3       1 <0>        -0.1097
     13 C11        -1.6774   -5.6553    1.4301 C.3       1 <0>         0.1341
     14 N2         -0.7604   -6.7978    1.4222 N.am      1 <0>        -0.6226
     15 C12        -1.1843   -8.1992    1.3209 C.3       1 <0>         0.1152
     16 C13         0.0827   -8.9848    0.9160 C.3       1 <0>        -0.1231
     17 H1          0.1503   -9.0844   -0.1673 H         1 <0>         0.1264
     18 C14         1.2066   -8.0721    1.4590 C.3       1 <0>        -0.1472
     19 C15         0.5777   -6.6968    1.5009 C.2       1 <0>         0.5246
     20 O2          1.1914   -5.6550    1.5946 O.2       1 <0>        -0.5123
     21 C16         0.1153  -10.3362    1.5821 C.2       1 <0>         0.5266
     22 O3         -0.7855  -10.6689    2.3230 O.2       1 <0>        -0.5081
     23 N3          1.1454  -11.1750    1.3546 N.am      1 <0>        -0.6668
     24 C17         1.2254  -12.3888    2.0468 C.ar      1 <0>         0.1501
     25 C18         2.4626  -12.8944    2.4237 C.ar      1 <0>        -0.1348
     26 C19         2.5386  -14.0922    3.1070 C.ar      1 <0>        -0.0706
     27 C20         1.3835  -14.7883    3.4161 C.ar      1 <0>        -0.1015
     28 C21         0.1495  -14.2869    3.0418 C.ar      1 <0>        -0.0720
     29 C22         0.0673  -13.0870    2.3629 C.ar      1 <0>        -0.1139
     30 Br1         1.4917  -16.4283    4.3513 Br        1 <0>        -0.0421
     31 H2          0.9932    1.7950   -0.0628 H         1 <0>         0.1171
     32 H3         -0.5612    1.7738   -0.9297 H         1 <0>         0.0641
     33 H4         -0.5347    1.7733    0.8501 H         1 <0>         0.0644
     34 H5         -2.2990    1.2037   -0.0237 H         1 <0>         0.1675
     35 H6         -4.4945    0.2079    0.0084 H         1 <0>         0.1695
     36 H7         -4.7199   -4.5619    0.9233 H         1 <0>         0.1763
     37 H8         -4.7434   -4.5691   -0.8644 H         1 <0>         0.1768
     38 H9         -0.3143   -2.5611   -0.0446 H         1 <0>         0.1658
     39 H10        -2.3536   -5.9960   -0.5867 H         1 <0>         0.1133
     40 H11        -0.9689   -4.8855   -0.4531 H         1 <0>         0.1132
     41 H12        -1.2409   -4.8430    2.0113 H         1 <0>         0.0961
     42 H13        -2.6255   -5.9535    1.8776 H         1 <0>         0.0926
     43 H14        -1.5550   -8.5516    2.2834 H         1 <0>         0.0998
     44 H15        -1.9545   -8.3060    0.5571 H         1 <0>         0.0904
     45 H16         1.5065   -8.3892    2.4578 H         1 <0>         0.1157
     46 H17         2.0619   -8.0770    0.7833 H         1 <0>         0.1189
     47 H18         1.8313  -10.9375    0.7112 H         1 <0>         0.4162
     48 H19         3.3646  -12.3516    2.1824 H         1 <0>         0.1370
     49 H20         3.5006  -14.4860    3.4001 H         1 <0>         0.1400
     50 H21        -0.7505  -14.8325    3.2840 H         1 <0>         0.1383
     51 H22        -0.8964  -12.6940    2.0746 H         1 <0>         0.1473
     52 H23        -5.7411   -2.3589    0.0344 H         1 <0>         0.4568
@<TRIPOS>BOND
     1    1    2 1
     2    1   31 1
     3    1   32 1
     4    1   33 1
     5    2    3 1
     6    3   11 ar
     7    3    4 ar
     8    4    5 ar
     9    4   34 1
    10    5    6 ar
    11    5   35 1
    12    6   10 ar
    13    6    7 2
    14    7    8 1
    15    7   52 1
    16    8    9 1
    17    8   36 1
    18    8   37 1
    19    9   10 2
    20    9   12 1
    21   10   11 ar
    22   11   38 1
    23   12   13 1
    24   12   39 1
    25   12   40 1
    26   13   14 1
    27   13   41 1
    28   13   42 1
    29   14   19 am
    30   14   15 1
    31   15   16 1
    32   15   43 1
    33   15   44 1
    34   16   17 1
    35   16   18 1
    36   16   21 1
    37   18   19 1
    38   18   45 1
    39   18   46 1
    40   19   20 2
    41   21   22 2
    42   21   23 am
    43   23   24 1
    44   23   47 1
    45   24   29 ar
    46   24   25 ar
    47   25   26 ar
    48   25   48 1
    49   26   27 ar
    50   26   49 1
    51   27   28 ar
    52   27   30 1
    53   28   29 ar
    54   28   50 1
    55   29   51 1
@<TRIPOS>MOLECULE
ZINC16941853
   36    37     0     0     0
SMALL
USER_CHARGES
(3R)-1-cyclohexylpiperidine-3-carboxylic acid
@<TRIPOS>ATOM
      1 C1         -0.7288    1.5792    1.2668 C.3       1 <0>        -0.1291
      2 C2         -0.0127    1.0858    0.0080 C.3       1 <0>        -0.1162
      3 C3         -0.7527    1.5927   -1.2315 C.3       1 <0>        -0.1413
      4 C4         -2.1881    1.0631   -1.2207 C.3       1 <0>         0.0310
      5 C5         -2.9042    1.5565    0.0381 C.3       1 <0>        -0.1440
      6 C6         -2.1642    1.0497    1.2777 C.3       1 <0>        -0.1159
      7 C7         -2.1256    1.2835   -3.6306 C.3       1 <0>        -0.0049
      8 C8         -2.8234    1.9300   -4.8295 C.3       1 <0>        -0.1434
      9 C9         -4.2363    1.3551   -4.9625 C.3       1 <0>        -0.1147
     10 C10        -5.0043    1.6029   -3.6612 C.3       1 <0>        -0.1520
     11 H1         -5.0970    2.6757   -3.4921 H         1 <0>         0.0899
     12 C11        -4.2433    0.9659   -2.4962 C.3       1 <0>         0.0175
     13 C12        -6.3768    0.9888   -3.7614 C.2       1 <0>         0.4698
     14 O1         -6.7126    0.1296   -2.9811 O.co2     1 <0>        -0.6295
     15 H2         -0.2017    1.2182    2.1499 H         1 <0>         0.0749
     16 H3         -0.7436    2.6691    1.2728 H         1 <0>         0.0681
     17 H4          0.0021   -0.0041    0.0020 H         1 <0>         0.0727
     18 H5          1.0099    1.4631    0.0003 H         1 <0>         0.0798
     19 H6         -0.7675    2.6825   -1.2255 H         1 <0>         0.0833
     20 H7         -0.2425    1.2411   -2.1283 H         1 <0>         0.0867
     21 H8         -2.1733   -0.0268   -1.2266 H         1 <0>         0.1342
     22 H9         -2.9190    2.6464    0.0441 H         1 <0>         0.0835
     23 H10        -3.9268    1.1792    0.0459 H         1 <0>         0.0919
     24 H11        -2.6744    1.4012    2.1745 H         1 <0>         0.0815
     25 H12        -2.1494   -0.0402    1.2717 H         1 <0>         0.0732
     26 H13        -1.1244    1.7011   -3.5246 H         1 <0>         0.1234
     27 H14        -2.0552    0.2073   -3.7884 H         1 <0>         0.1252
     28 H15        -2.2577    1.7190   -5.7370 H         1 <0>         0.1052
     29 H16        -2.8818    3.0080   -4.6794 H         1 <0>         0.0825
     30 H17        -4.1771    0.2833   -5.1520 H         1 <0>         0.0735
     31 H18        -4.7529    1.8431   -5.7890 H         1 <0>         0.0973
     32 H19        -4.1630   -0.1088   -2.6593 H         1 <0>         0.1288
     33 H20        -4.7802    1.1531   -1.5663 H         1 <0>         0.1270
     34 N1         -2.9010    1.5794   -2.4073 N.4       1 <0>        -0.3921
     35 H21        -3.0052    2.5969   -2.3171 H         1 <0>         0.4186
     36 O2         -7.2263    1.3964   -4.7174 O.co2     1 <0>        -0.7365
@<TRIPOS>BOND
     1    1    6 1
     2    1    2 1
     3    1   15 1
     4    1   16 1
     5    2    3 1
     6    2   17 1
     7    2   18 1
     8    3    4 1
     9    3   19 1
    10    3   20 1
    11    4    5 1
    12    4   21 1
    13    4   34 1
    14    5    6 1
    15    5   22 1
    16    5   23 1
    17    6   24 1
    18    6   25 1
    19    7    8 1
    20    7   26 1
    21    7   27 1
    22    7   34 1
    23    8    9 1
    24    8   28 1
    25    8   29 1
    26    9   10 1
    27    9   30 1
    28    9   31 1
    29   10   11 1
    30   10   12 1
    31   10   13 1
    32   12   32 1
    33   12   33 1
    34   12   34 1
    35   13   14 2
    36   13   36 1
    37   34   35 1
@<TRIPOS>MOLECULE
ZINC39133511
   25    26     0     0     0
SMALL
USER_CHARGES

@<TRIPOS>ATOM
      1 C1         -0.0184    1.5028    0.0103 C.3       1 <0>        -0.1173
      2 C2          0.0021   -0.0041    0.0020 C.ar      1 <0>        -0.1485
      3 C3          0.0052   -0.6731   -1.2331 C.ar      1 <0>         0.0373
      4 C4          0.0227   -2.0205   -1.3164 C.ar      1 <0>        -0.2043
      5 C5          0.0394   -2.8141   -0.0758 C.ar      1 <0>         0.3087
      6 N1          0.0571   -4.0985    0.1345 N.pl3     1 <0>        -0.5855
      7 C6          0.0675   -4.3527    1.5786 C.3       1 <0>         0.0932
      8 H1         -0.8176   -4.9203    1.8659 H         1 <0>         0.1721
      9 C7          0.0530   -2.9937    2.2434 C.2       1 <0>         0.0782
     10 C8          0.0361   -2.0761    1.2122 C.ar      1 <0>        -0.1668
     11 C9          0.0222   -0.6604    1.1829 C.ar      1 <0>         0.0102
     12 C10         0.0563   -2.7199    3.6348 C.2       1 <0>         0.5050
     13 O1          0.0721   -3.6424    4.4405 O.co2     1 <0>        -0.6315
     14 O2          0.0431   -1.5609    4.0309 O.co2     1 <0>        -0.6249
     15 C11         1.3331   -5.1183    1.9694 C.3       1 <0>        -0.1450
     16 H2          1.0042    1.8801    0.0026 H         1 <0>         0.0771
     17 H3         -0.5455    1.8639   -0.8728 H         1 <0>         0.0717
     18 H4         -0.5286    1.8543    0.9071 H         1 <0>         0.0768
     19 H5         -0.0071   -0.0922   -2.1435 H         1 <0>         0.1523
     20 H6          0.0240   -2.5097   -2.2793 H         1 <0>         0.1554
     21 H7          0.0234   -0.1032    2.1081 H         1 <0>         0.1662
     22 H8          2.2111   -4.5405    1.6806 H         1 <0>         0.0725
     23 H9          1.3423   -5.2788    3.0475 H         1 <0>         0.1190
     24 H10         1.3477   -6.0811    1.4586 H         1 <0>         0.0842
     25 H11         0.0623   -4.7802   -0.5555 H         1 <0>         0.4438
@<TRIPOS>BOND
     1    1    2 1
     2    1   16 1
     3    1   17 1
     4    1   18 1
     5    2   11 ar
     6    2    3 ar
     7    3    4 ar
     8    3   19 1
     9    4    5 ar
    10    4   20 1
    11    5   10 ar
    12    5    6 2
    13    6    7 1
    14    6   25 1
    15    7    8 1
    16    7    9 1
    17    7   15 1
    18    9   10 2
    19    9   12 1
    20   10   11 ar
    21   11   21 1
    22   12   13 2
    23   12   14 1
    24   15   22 1
    25   15   23 1
    26   15   24 1
@<TRIPOS>MOLECULE
ZINC44979136
   33    34     0     0     0
SMALL
USER_CHARGES

@<TRIPOS>ATOM
      1 C1         -0.0184    1.5028    0.0103 C.3       1 <0>        -0.1096
      2 C2          0.0021   -0.0041    0.0020 C.2       1 <0>         0.1843
      3 C3          0.0058   -0.6795   -1.1807 C.2       1 <0>        -0.3008
      4 C4          0.0255   -2.0893   -1.1527 C.2       1 <0>         0.5217
      5 O1          0.0299   -2.7329   -2.1889 O.2       1 <0>        -0.5391
      6 N1          0.0400   -2.7115    0.0455 N.am      1 <0>        -0.6290
      7 H1          0.0541   -3.6804    0.0894 H         1 <0>         0.4173
      8 C5          0.0354   -1.9848    1.1802 C.2       1 <0>         0.4071
      9 N2          0.0222   -0.6787    1.1541 N.2       1 <0>        -0.5308
     10 C6          0.0517   -2.6947    2.5094 C.3       1 <0>        -0.0439
     11 H2         -0.5253   -3.6165    2.4362 H         1 <0>         0.0987
     12 C7          1.4954   -3.0258    2.8931 C.3       1 <0>        -0.1114
     13 C8          1.5119   -3.7464    4.2426 C.3       1 <0>        -0.1174
     14 C9          0.8948   -2.8421    5.3114 C.3       1 <0>        -0.1181
     15 C10        -0.5488   -2.5110    4.9277 C.3       1 <0>        -0.0934
     16 H3         -1.1258   -3.4328    4.8544 H         1 <0>         0.0701
     17 C11        -0.5654   -1.7903    3.5782 C.3       1 <0>        -0.0943
     18 C12        -1.1659   -1.6066    5.9965 C.3       1 <0>        -0.1479
     19 H4          1.0042    1.8801    0.0026 H         1 <0>         0.0875
     20 H5         -0.5455    1.8639   -0.8728 H         1 <0>         0.0821
     21 H6         -0.5286    1.8543    0.9071 H         1 <0>         0.0839
     22 H7         -0.0066   -0.1467   -2.1200 H         1 <0>         0.1555
     23 H8          1.9350   -3.6700    2.1317 H         1 <0>         0.0652
     24 H9          2.0724   -2.1039    2.9664 H         1 <0>         0.0757
     25 H10         0.9349   -4.6683    4.1693 H         1 <0>         0.0656
     26 H11         2.5404   -3.9823    4.5159 H         1 <0>         0.0698
     27 H12         0.9066   -3.3555    6.2728 H         1 <0>         0.0651
     28 H13         1.4718   -1.9203    5.3846 H         1 <0>         0.0659
     29 H14         0.0116   -0.8685    3.6515 H         1 <0>         0.0852
     30 H15        -1.5939   -1.5544    3.3049 H         1 <0>         0.0673
     31 H16        -0.5889   -0.6848    6.0697 H         1 <0>         0.0567
     32 H17        -2.1944   -1.3708    5.7231 H         1 <0>         0.0553
     33 H18        -1.1541   -2.1201    6.9579 H         1 <0>         0.0556
@<TRIPOS>BOND
     1    1    2 1
     2    1   19 1
     3    1   20 1
     4    1   21 1
     5    2    9 1
     6    2    3 2
     7    3    4 1
     8    3   22 1
     9    4    5 2
    10    4    6 am
    11    6    7 1
    12    6    8 1
    13    8    9 2
    14    8   10 1
    15   10   11 1
    16   10   17 1
    17   10   12 1
    18   12   13 1
    19   12   23 1
    20   12   24 1
    21   13   14 1
    22   13   25 1
    23   13   26 1
    24   14   15 1
    25   14   27 1
    26   14   28 1
    27   15   16 1
    28   15   17 1
    29   15   18 1
    30   17   29 1
    31   17   30 1
    32   18   31 1
    33   18   32 1
    34   18   33 1
@<TRIPOS>MOLECULE
ZINC11549342
   27    28     0     0     0
SMALL
USER_CHARGES

@<TRIPOS>ATOM
      1 C1         -0.0184    1.5028    0.0103 C.3       1 <0>        -0.1211
      2 C2          0.0021   -0.0041    0.0020 C.ar      1 <0>        -0.0203
      3 C3          0.0057   -0.6836   -1.2045 C.ar      1 <0>        -0.1573
      4 C4          0.0248   -2.0626   -1.2188 C.ar      1 <0>         0.0032
      5 C5          0.0405   -2.7694   -0.0164 C.ar      1 <0>        -0.1612
      6 C6          0.0369   -2.0861    1.2043 C.ar      1 <0>         0.1509
      7 C7          0.0228   -0.6940    1.1964 C.ar      1 <0>        -0.1194
      8 C8          0.0243    0.0630    2.4995 C.3       1 <0>        -0.1103
      9 O1          0.0545   -2.9500    2.2486 O.3       1 <0>        -0.2843
     10 C9          0.0713   -4.3010    1.7862 C.3       1 <0>         0.0629
     11 C10         0.0626   -4.2194    0.2741 C.2       1 <0>         0.1491
     12 N1          0.0716   -5.1978   -0.5728 N.2       1 <0>        -0.3056
     13 O2          0.0931   -6.5355   -0.1091 O.3       1 <0>        -0.4053
     14 C11         0.0282   -2.8041   -2.5308 C.3       1 <0>        -0.1220
     15 H1          1.0042    1.8801    0.0026 H         1 <0>         0.0792
     16 H2         -0.5455    1.8639   -0.8728 H         1 <0>         0.0737
     17 H3         -0.5286    1.8543    0.9071 H         1 <0>         0.0752
     18 H4         -0.0069   -0.1339   -2.1340 H         1 <0>         0.1349
     19 H5         -1.0028    0.2312    2.8232 H         1 <0>         0.0710
     20 H6          0.5533   -0.5167    3.2559 H         1 <0>         0.0690
     21 H7          0.5236    1.0222    2.3619 H         1 <0>         0.0722
     22 H8          0.9744   -4.8051    2.1304 H         1 <0>         0.1141
     23 H9         -0.8135   -4.8305    2.1394 H         1 <0>         0.1143
     24 H10         0.0984   -7.1965   -0.8149 H         1 <0>         0.4102
     25 H11         1.0566   -2.9686   -2.8525 H         1 <0>         0.0769
     26 H12        -0.4716   -3.7647   -2.4065 H         1 <0>         0.0786
     27 H13        -0.4978   -2.2154   -3.2823 H         1 <0>         0.0715
@<TRIPOS>BOND
     1    1    2 1
     2    1   15 1
     3    1   16 1
     4    1   17 1
     5    2    7 ar
     6    2    3 ar
     7    3    4 ar
     8    3   18 1
     9    4    5 ar
    10    4   14 1
    11    5   11 1
    12    5    6 ar
    13    6    7 ar
    14    6    9 1
    15    7    8 1
    16    8   19 1
    17    8   20 1
    18    8   21 1
    19    9   10 1
    20   10   11 1
    21   10   22 1
    22   10   23 1
    23   11   12 2
    24   12   13 1
    25   13   24 1
    26   14   25 1
    27   14   26 1
    28   14   27 1
@<TRIPOS>MOLECULE
ZINC65339039
   21    22     0     0     0
SMALL
USER_CHARGES

@<TRIPOS>ATOM
      1 C1         -0.0167    1.3776    0.0096 C.ar      1 <0>        -0.0896
      2 C2         -1.2343    2.0430    0.0190 C.ar      1 <0>        -0.1492
      3 C3         -2.4002    1.2895    0.0205 C.ar      1 <0>         0.2713
      4 C4         -2.3048   -0.1058    0.0124 C.ar      1 <0>         0.0422
      5 N1         -1.1185   -0.6986    0.0036 N.ar      1 <0>        -0.3883
      6 C5          0.0021   -0.0041    0.0020 C.ar      1 <0>        -0.0170
      7 C6         -3.5386   -0.9281    0.0143 C.2       1 <0>        -0.1326
      8 C7         -3.6609   -2.0210    0.8519 C.2       1 <0>        -0.0668
      9 C8         -4.8591   -2.7157    0.7677 C.2       1 <0>        -0.3214
     10 S1         -5.7431   -1.7985   -0.4782 S.3       1 <0>         0.3013
     11 C9         -4.5964   -0.6187   -0.8158 C.2       1 <0>        -0.1556
     12 C10        -5.2728   -3.8597    1.4867 C.2       1 <0>         0.4181
     13 O1         -6.3686   -4.3416    1.2827 O.2       1 <0>        -0.4608
     14 O2         -3.6152    1.8982    0.0300 O.3       1 <0>        -0.6226
     15 H1          0.9084    1.9349    0.0038 H         1 <0>         0.1557
     16 H2         -1.2741    3.1223    0.0254 H         1 <0>         0.1470
     17 H3          0.9492   -0.5229   -0.0098 H         1 <0>         0.1801
     18 H4         -2.8730   -2.3158    1.5292 H         1 <0>         0.1466
     19 H5         -4.6695    0.1948   -1.5223 H         1 <0>         0.1998
     20 H6         -4.6143   -4.3054    2.2176 H         1 <0>         0.1172
     21 H7         -1.0741   -1.6676   -0.0019 H         1 <0>         0.4247
@<TRIPOS>BOND
     1    1    6 ar
     2    1   15 1
     3    1    2 ar
     4    2    3 ar
     5    2   16 1
     6    3   14 1
     7    3    4 ar
     8    4    7 1
     9    4    5 ar
    10    5   21 1
    11    5    6 ar
    12    6   17 1
    13    7   11 2
    14    7    8 1
    15    8    9 2
    16    8   18 1
    17    9   10 1
    18    9   12 1
    19   10   11 1
    20   11   19 1
    21   12   13 2
    22   12   20 1
@<TRIPOS>MOLECULE
ZINC08752044
   51    54     0     0     0
SMALL
USER_CHARGES
4-[[4-(1H-indol-3-yl)-1-piperidyl]methyl]-3-nitro-benzamide
@<TRIPOS>ATOM
      1 C1         -1.8515    1.7277    0.0587 C.ar      1 <0>        -0.1362
      2 C2         -0.6879    0.9732   -0.0072 C.ar      1 <0>        -0.0932
      3 C3          0.5435    1.5861   -0.0815 C.ar      1 <0>        -0.1253
      4 C4          0.6250    2.9750   -0.0849 C.ar      1 <0>         0.0952
      5 C5         -0.5565    3.7349   -0.0122 C.ar      1 <0>        -0.0994
      6 C6         -1.7942    3.0928    0.0621 C.ar      1 <0>        -0.0789
      7 C7         -0.1373    5.1382   -0.0361 C.2       1 <0>        -0.1870
      8 C8          1.2026    5.1462   -0.1177 C.2       1 <0>         0.0679
      9 N1          1.6757    3.8626   -0.1479 N.pl3     1 <0>        -0.5894
     10 H1          2.6118    3.6150   -0.2046 H         1 <0>         0.4210
     11 C9         -1.0392    6.3443    0.0194 C.3       1 <0>        -0.0131
     12 C10        -0.8384    7.1918   -1.2400 C.3       1 <0>        -0.1385
     13 C11        -1.7113    8.4455   -1.1499 C.3       1 <0>        -0.0107
     14 C12        -1.5709    8.4392    1.2693 C.3       1 <0>         0.0021
     15 C13        -0.6937    7.1853    1.2514 C.3       1 <0>        -0.1406
     16 C14        -2.0627   10.4951    0.0895 C.3       1 <0>         0.0349
     17 C15        -1.8841   11.2189   -1.2202 C.ar      1 <0>        -0.0667
     18 C16        -2.9307   11.2766   -2.1237 C.ar      1 <0>        -0.0910
     19 C17        -2.7741   11.9382   -3.3238 C.ar      1 <0>        -0.0294
     20 C18        -1.5564   12.5500   -3.6263 C.ar      1 <0>        -0.1001
     21 C19        -0.5048   12.4878   -2.7109 C.ar      1 <0>         0.0110
     22 C20        -0.6765   11.8276   -1.5115 C.ar      1 <0>        -0.0399
     23 N2          0.4357   11.7657   -0.5369 N.pl3     1 <0>         0.0264
     24 O1          1.4641   12.3839   -0.7463 O.2       1 <0>        -0.0674
     25 O2          0.3226   11.0966    0.4746 O.3       1 <0>        -0.2186
     26 C21        -1.3814   13.2605   -4.9109 C.2       1 <0>         0.5572
     27 O3         -0.3199   13.7924   -5.1716 O.2       1 <0>        -0.5098
     28 N3         -2.3987   13.3185   -5.7930 N.am      1 <0>        -0.8386
     29 H2         -2.8093    1.2315    0.1120 H         1 <0>         0.1261
     30 H3         -0.7490   -0.1050   -0.0047 H         1 <0>         0.1302
     31 H4          1.4427    0.9905   -0.1372 H         1 <0>         0.1239
     32 H5         -2.7033    3.6731    0.1184 H         1 <0>         0.1192
     33 H6          1.8163    6.0342   -0.1537 H         1 <0>         0.1654
     34 H7         -2.0780    6.0198    0.0794 H         1 <0>         0.0951
     35 H8          0.2091    7.4826   -1.3197 H         1 <0>         0.0833
     36 H9         -1.1235    6.6121   -2.1180 H         1 <0>         0.1145
     37 H10        -2.7596    8.1542   -1.0841 H         1 <0>         0.1358
     38 H11        -1.5599    9.0582   -2.0386 H         1 <0>         0.1169
     39 H12        -2.6198    8.1479    1.3238 H         1 <0>         0.1320
     40 H13        -1.3175    9.0473    2.1377 H         1 <0>         0.1342
     41 H14        -0.8756    6.6011    2.1535 H         1 <0>         0.1169
     42 H15         0.3562    7.4755    1.2112 H         1 <0>         0.0879
     43 H16        -3.1230   10.3088    0.2600 H         1 <0>         0.1512
     44 H17        -1.6664   11.1071    0.8998 H         1 <0>         0.1549
     45 H18        -3.8723   10.8028   -1.8884 H         1 <0>         0.1694
     46 H19        -3.5920   11.9831   -4.0278 H         1 <0>         0.1627
     47 H20         0.4398   12.9591   -2.9389 H         1 <0>         0.1814
     48 H21        -3.2458   12.8941   -5.5850 H         1 <0>         0.4028
     49 H22        -2.2839   13.7847   -6.6359 H         1 <0>         0.4199
     50 N4         -1.3127    9.2230    0.0425 N.4       1 <0>        -0.3898
     51 H23        -0.3086    9.4299   -0.0152 H         1 <0>         0.4240
@<TRIPOS>BOND
     1    1    6 ar
     2    1    2 ar
     3    1   29 1
     4    2    3 ar
     5    2   30 1
     6    3    4 ar
     7    3   31 1
     8    4    9 1
     9    4    5 ar
    10    5    6 ar
    11    5    7 1
    12    6   32 1
    13    7    8 2
    14    7   11 1
    15    8    9 1
    16    8   33 1
    17    9   10 1
    18   11   15 1
    19   11   12 1
    20   11   34 1
    21   12   13 1
    22   12   35 1
    23   12   36 1
    24   13   37 1
    25   13   38 1
    26   13   50 1
    27   14   15 1
    28   14   39 1
    29   14   40 1
    30   14   50 1
    31   15   41 1
    32   15   42 1
    33   16   17 1
    34   16   43 1
    35   16   44 1
    36   16   50 1
    37   17   22 ar
    38   17   18 ar
    39   18   19 ar
    40   18   45 1
    41   19   20 ar
    42   19   46 1
    43   20   21 ar
    44   20   26 1
    45   21   22 ar
    46   21   47 1
    47   22   23 1
    48   23   24 2
    49   23   25 1
    50   26   27 2
    51   26   28 am
    52   28   48 1
    53   28   49 1
    54   50   51 1
@<TRIPOS>MOLECULE
ZINC41601591
   47    49     0     0     0
SMALL
USER_CHARGES

@<TRIPOS>ATOM
      1 C1         -0.0189    1.5422    0.0105 C.3       1 <0>        -0.1797
      2 C2          0.0021   -0.0041    0.0020 C.3       1 <0>         0.0639
      3 C3          0.6704   -0.4432   -1.2967 C.3       1 <0>        -0.1427
      4 C4          0.9625   -1.9435   -1.2647 C.3       1 <0>         0.1562
      5 C5          1.8924   -2.2229   -0.0837 C.3       1 <0>        -0.1441
      6 C6          1.2326   -1.7978    1.2240 C.3       1 <0>         0.0609
      7 N1          0.7111   -0.4428    1.1910 N.4       1 <0>        -0.4914
      8 C7          2.3137   -1.8592    2.3279 C.3       1 <0>        -0.1790
      9 C8          0.1429   -2.8050    1.6059 C.3       1 <0>        -0.1732
     10 N2          1.6331   -2.3328   -2.5114 N.pl3     1 <0>        -0.6974
     11 C9          1.5465   -3.6239   -2.9615 C.2       1 <0>         0.6468
     12 N3          0.8527   -4.5040   -2.2664 N.2       1 <0>        -0.6338
     13 C10         0.7496   -5.7713   -2.6797 C.2       1 <0>         0.5161
     14 O1          0.1054   -6.5808   -2.0316 O.2       1 <0>        -0.4655
     15 C11         1.4214   -6.1809   -3.9260 C.2       1 <0>         0.1463
     16 N4          2.1069   -5.2806   -4.5989 N.2       1 <0>        -0.1871
     17 N5          2.1716   -3.9673   -4.1147 N.pl3     1 <0>        -0.5393
     18 C12         1.3278   -7.5719   -4.4096 C.2       1 <0>        -0.1582
     19 C13         1.8816   -8.1362   -5.5292 C.2       1 <0>        -0.0855
     20 C14         1.6542   -9.4712   -5.7786 C.2       1 <0>        -0.1767
     21 C15         0.8913  -10.1861   -4.9116 C.2       1 <0>        -0.1593
     22 S1          0.4702   -8.9598   -3.6844 S.3       1 <0>         0.1630
     23 C16        -1.4566   -0.4731    0.0185 C.3       1 <0>        -0.1786
     24 H1          1.0037    1.9194    0.0028 H         1 <0>         0.0821
     25 H2         -0.5461    1.9032   -0.8725 H         1 <0>         0.1075
     26 H3         -0.5291    1.8937    0.9073 H         1 <0>         0.0861
     27 H4          0.0110   -0.2211   -2.1392 H         1 <0>         0.1181
     28 H5          1.6061    0.1051   -1.4290 H         1 <0>         0.0968
     29 H6          0.0406   -2.5096   -1.1664 H         1 <0>         0.1223
     30 H7          2.1197   -3.2910   -0.0471 H         1 <0>         0.1183
     31 H8          2.8249   -1.6698   -0.2185 H         1 <0>         0.0907
     32 H9          1.4892    0.2036    1.3564 H         1 <0>         0.4238
     33 H10         3.1303   -1.1831    2.0748 H         1 <0>         0.0809
     34 H11         1.8771   -1.5607    3.2810 H         1 <0>         0.0844
     35 H12         2.6957   -2.8771    2.4062 H         1 <0>         0.1073
     36 H13         0.5881   -3.7920    1.7307 H         1 <0>         0.1074
     37 H14        -0.3253   -2.4967    2.5407 H         1 <0>         0.0813
     38 H15        -0.6093   -2.8426    0.8180 H         1 <0>         0.0848
     39 H16         2.1374   -1.6759   -3.0164 H         1 <0>         0.4175
     40 H17         2.4843   -7.5452   -6.2029 H         1 <0>         0.1419
     41 H18         2.0770   -9.9438   -6.6529 H         1 <0>         0.1429
     42 H19         0.6140  -11.2291   -4.9521 H         1 <0>         0.1947
     43 H20        -1.9712   -0.0904   -0.8629 H         1 <0>         0.1056
     44 H21        -1.4880   -1.5626    0.0131 H         1 <0>         0.0855
     45 H22        -1.9481   -0.0999    0.9169 H         1 <0>         0.0855
     46 H23         0.0927   -0.3170    1.9984 H         1 <0>         0.4284
     47 H24         2.6718   -3.2980   -4.6074 H         1 <0>         0.4447
@<TRIPOS>BOND
     1    1    2 1
     2    1   24 1
     3    1   25 1
     4    1   26 1
     5    2    7 1
     6    2    3 1
     7    2   23 1
     8    3    4 1
     9    3   27 1
    10    3   28 1
    11    4    5 1
    12    4   10 1
    13    4   29 1
    14    5    6 1
    15    5   30 1
    16    5   31 1
    17    6    7 1
    18    6    8 1
    19    6    9 1
    20    7   32 1
    21    7   46 1
    22    8   33 1
    23    8   34 1
    24    8   35 1
    25    9   36 1
    26    9   37 1
    27    9   38 1
    28   10   11 1
    29   10   39 1
    30   11   17 1
    31   11   12 2
    32   12   13 1
    33   13   14 2
    34   13   15 1
    35   15   16 2
    36   15   18 1
    37   16   17 1
    38   17   47 1
    39   18   22 1
    40   18   19 2
    41   19   20 1
    42   19   40 1
    43   20   21 2
    44   20   41 1
    45   21   22 1
    46   21   42 1
    47   23   43 1
    48   23   44 1
    49   23   45 1
@<TRIPOS>MOLECULE
ZINC13658411
   41    43     0     0     0
SMALL
USER_CHARGES

@<TRIPOS>ATOM
      1 C1         -0.0179    1.5038   -0.0286 C.3       1 <0>        -0.1251
      2 C2          0.0024   -0.0031   -0.0256 C.2       1 <0>         0.2680
      3 C3         -1.2019   -0.7180   -0.0177 C.2       1 <0>        -0.2137
      4 C4         -1.1708   -2.0745   -0.0151 C.2       1 <0>         0.2315
      5 N1          0.0354   -2.7114   -0.0201 N.pl3     1 <0>        -0.3005
      6 C5          1.1897   -1.9778   -0.0277 C.2       1 <0>         0.3642
      7 N2          1.1501   -0.6433   -0.0357 N.2       1 <0>        -0.5125
      8 C6          2.2528   -2.8959   -0.0310 C.2       1 <0>        -0.3206
      9 C7          1.6875   -4.1800   -0.0251 C.2       1 <0>         0.1679
     10 N3          0.3837   -4.0664   -0.0187 N.2       1 <0>        -0.2702
     11 C8          3.6894   -2.5718   -0.0394 C.cat     1 <0>         0.6649
     12 N4          4.0783   -1.3221   -0.0448 N.pl3     1 <0>        -0.7348
     13 N5          4.6212   -3.5812   -0.0417 N.pl3     1 <0>        -0.5230
     14 O1          6.0025   -3.2697   -0.0499 O.3       1 <0>        -0.1156
     15 C9          6.8055   -4.3465   -0.0513 C.2       1 <0>         0.6385
     16 O2          6.3249   -5.4631   -0.0459 O.2       1 <0>        -0.5218
     17 N6          8.1440   -4.1890   -0.0589 N.am      1 <0>        -0.6246
     18 C10         8.9809   -5.3070    0.0373 C.ar      1 <0>         0.1354
     19 C11        10.1795   -5.2208    0.7331 C.ar      1 <0>        -0.1136
     20 C12        11.0031   -6.3255    0.8269 C.ar      1 <0>        -0.0888
     21 C13        10.6351   -7.5174    0.2278 C.ar      1 <0>        -0.0345
     22 C14         9.4411   -7.6059   -0.4662 C.ar      1 <0>        -0.0899
     23 C15         8.6112   -6.5058   -0.5581 C.ar      1 <0>        -0.1012
     24 Cl1        11.6732   -8.9037    0.3466 Cl        1 <0>        -0.0511
     25 C16        -2.4524   -2.8672   -0.0062 C.3       1 <0>        -0.1308
     26 H1          1.0047    1.8809   -0.0396 H         1 <0>         0.0945
     27 H2         -0.5455    1.8582   -0.9141 H         1 <0>         0.1085
     28 H3         -0.5277    1.8620    0.8658 H         1 <0>         0.1086
     29 H4         -2.1465   -0.1945   -0.0135 H         1 <0>         0.1900
     30 H5          2.2377   -5.1093   -0.0260 H         1 <0>         0.2194
     31 H6          5.0245   -1.1087   -0.0504 H         1 <0>         0.4363
     32 H7          4.3330   -4.5074   -0.0378 H         1 <0>         0.4619
     33 H8          8.5274   -3.3009   -0.1309 H         1 <0>         0.4270
     34 H9         10.4675   -4.2907    1.2003 H         1 <0>         0.1425
     35 H10        11.9354   -6.2589    1.3680 H         1 <0>         0.1471
     36 H11         9.1562   -8.5372   -0.9329 H         1 <0>         0.1448
     37 H12         7.6774   -6.5766   -1.0961 H         1 <0>         0.1497
     38 H13        -3.3020   -2.1844   -0.0029 H         1 <0>         0.1100
     39 H14        -2.4961   -3.4972   -0.8947 H         1 <0>         0.1049
     40 H15        -2.4861   -3.4935    0.8853 H         1 <0>         0.1050
     41 H16         3.4204   -0.6094   -0.0432 H         1 <0>         0.4521
@<TRIPOS>BOND
     1    1    2 1
     2    1   26 1
     3    1   27 1
     4    1   28 1
     5    2    7 2
     6    2    3 1
     7    3    4 2
     8    3   29 1
     9    4    5 1
    10    4   25 1
    11    5   10 1
    12    5    6 1
    13    6    7 1
    14    6    8 2
    15    8    9 1
    16    8   11 1
    17    9   10 2
    18    9   30 1
    19   11   12 2
    20   11   13 1
    21   12   31 1
    22   12   41 1
    23   13   14 1
    24   13   32 1
    25   14   15 1
    26   15   16 2
    27   15   17 am
    28   17   18 1
    29   17   33 1
    30   18   23 ar
    31   18   19 ar
    32   19   20 ar
    33   19   34 1
    34   20   21 ar
    35   20   35 1
    36   21   22 ar
    37   21   24 1
    38   22   23 ar
    39   22   36 1
    40   23   37 1
    41   25   38 1
    42   25   39 1
    43   25   40 1
@<TRIPOS>MOLECULE
ZINC53392491
   56    57     0     0     0
SMALL
USER_CHARGES

@<TRIPOS>ATOM
      1 C1          0.5845    1.4646   -0.3752 C.3       1 <0>        -0.1520
      2 C2          0.4569   -0.0574   -0.2850 C.3       1 <0>        -0.1088
      3 C3          1.2312   -0.7047   -1.4368 C.3       1 <0>        -0.1351
      4 C4          1.1625   -2.2277   -1.2928 C.3       1 <0>        -0.1428
      5 C5          1.7151   -2.6306    0.0761 C.3       1 <0>        -0.0187
      6 N1          0.9167   -2.0010    1.1347 N.4       1 <0>        -0.3774
      7 C6          1.0357   -0.5407    1.0465 C.3       1 <0>        -0.0152
      8 C7          1.4019   -2.4521    2.4458 C.3       1 <0>         0.0462
      9 C8          2.8587   -2.0209    2.6265 C.3       1 <0>        -0.1756
     10 C9          0.5448   -1.8283    3.5490 C.3       1 <0>        -0.1780
     11 C10         1.3075   -3.9770    2.5275 C.3       1 <0>         0.1021
     12 N2         -0.0747   -4.3947    2.2797 N.am      1 <0>        -0.7522
     13 C11        -0.4150   -5.6946    2.3850 C.2       1 <0>         0.5258
     14 O1          0.4229   -6.5184    2.6850 O.2       1 <0>        -0.5083
     15 C12        -1.8368   -6.1242    2.1301 C.3       1 <0>        -0.1052
     16 C13        -2.7682   -5.4156    3.1162 C.3       1 <0>        -0.1261
     17 C14        -4.2158   -5.8281    2.8317 C.3       1 <0>         0.1292
     18 N3         -4.3049   -7.2943    2.8648 N.am      1 <0>        -0.6326
     19 C15        -3.3910   -8.0768    2.0214 C.3       1 <0>         0.1103
     20 C16        -1.9526   -7.6390    2.3150 C.3       1 <0>        -0.1181
     21 C17        -5.2075   -7.9098    3.6540 C.2       1 <0>         0.7103
     22 O2         -5.8925   -7.2572    4.4177 O.2       1 <0>        -0.5876
     23 N4         -5.3508   -9.2487    3.5967 N.am      1 <0>        -0.8655
     24 H1          1.6359    1.7453   -0.3131 H         1 <0>         0.0677
     25 H2          0.1720    1.8082   -1.3238 H         1 <0>         0.0785
     26 H3          0.0364    1.9245    0.4472 H         1 <0>         0.0687
     27 H4         -0.5942   -0.3390   -0.3486 H         1 <0>         0.0927
     28 H5          0.7868   -0.4080   -2.3869 H         1 <0>         0.0955
     29 H6          2.2717   -0.3819   -1.4033 H         1 <0>         0.0832
     30 H7          0.1262   -2.5550   -1.3776 H         1 <0>         0.0863
     31 H8          1.7577   -2.6948   -2.0774 H         1 <0>         0.1139
     32 H9          1.6679   -3.7144    0.1818 H         1 <0>         0.1311
     33 H10         2.7514   -2.3031    0.1597 H         1 <0>         0.1337
     34 H11         2.0864   -0.2578    1.1095 H         1 <0>         0.1338
     35 H12         0.4868   -0.0816    1.8688 H         1 <0>         0.1334
     36 H13         2.9259   -0.9346    2.5683 H         1 <0>         0.0901
     37 H14         3.2187   -2.3556    3.5993 H         1 <0>         0.1098
     38 H15         3.4693   -2.4654    1.8405 H         1 <0>         0.0860
     39 H16        -0.4931   -2.1355    3.4203 H         1 <0>         0.0803
     40 H17         0.9048   -2.1630    4.5219 H         1 <0>         0.1107
     41 H18         0.6120   -0.7419    3.4908 H         1 <0>         0.0887
     42 H19         1.9616   -4.4222    1.7777 H         1 <0>         0.0945
     43 H20         1.6145   -4.3074    3.5198 H         1 <0>         0.1151
     44 H21        -0.7449   -3.7358    2.0398 H         1 <0>         0.3928
     45 H22        -2.1187   -5.8602    1.1108 H         1 <0>         0.1047
     46 H23        -2.5027   -5.6985    4.1349 H         1 <0>         0.0788
     47 H24        -2.6679   -4.3364    3.0000 H         1 <0>         0.0750
     48 H25        -4.8725   -5.4049    3.5918 H         1 <0>         0.1029
     49 H26        -4.5122   -5.4661    1.8472 H         1 <0>         0.0702
     50 H27        -3.5034   -9.1372    2.2469 H         1 <0>         0.0866
     51 H28        -3.6201   -7.8981    0.9708 H         1 <0>         0.0751
     52 H29        -1.2718   -8.1424    1.6285 H         1 <0>         0.0880
     53 H30        -1.6948   -7.9010    3.3412 H         1 <0>         0.0795
     54 H31        -4.7561   -9.7768    3.0415 H         1 <0>         0.3967
     55 H32        -6.0486   -9.6842    4.1108 H         1 <0>         0.4181
     56 H33        -0.0510   -2.2657    1.0271 H         1 <0>         0.4131
@<TRIPOS>BOND
     1    1    2 1
     2    1   24 1
     3    1   25 1
     4    1   26 1
     5    2    7 1
     6    2    3 1
     7    2   27 1
     8    3    4 1
     9    3   28 1
    10    3   29 1
    11    4    5 1
    12    4   30 1
    13    4   31 1
    14    5    6 1
    15    5   32 1
    16    5   33 1
    17    6    7 1
    18    6    8 1
    19    6   56 1
    20    7   34 1
    21    7   35 1
    22    8    9 1
    23    8   10 1
    24    8   11 1
    25    9   36 1
    26    9   37 1
    27    9   38 1
    28   10   39 1
    29   10   40 1
    30   10   41 1
    31   11   12 1
    32   11   42 1
    33   11   43 1
    34   12   13 am
    35   12   44 1
    36   13   14 2
    37   13   15 1
    38   15   20 1
    39   15   16 1
    40   15   45 1
    41   16   17 1
    42   16   46 1
    43   16   47 1
    44   17   18 1
    45   17   48 1
    46   17   49 1
    47   18   19 1
    48   18   21 am
    49   19   20 1
    50   19   50 1
    51   19   51 1
    52   20   52 1
    53   20   53 1
    54   21   22 2
    55   21   23 am
    56   23   54 1
    57   23   55 1
@<TRIPOS>MOLECULE
ZINC65381032
   41    44     0     0     0
SMALL
USER_CHARGES

@<TRIPOS>ATOM
      1 C1         -0.6673   -0.5278    1.4945 C.3       1 <0>        -0.1622
      2 C2         -0.4557   -1.6457    2.5175 C.3       1 <0>        -0.0765
      3 C3          0.6539   -1.2594    3.4613 C.cat     1 <0>         0.3455
      4 N1          1.9660   -1.5251    3.2843 N.pl3     1 <0>        -0.5036
      5 H1          2.3620   -1.9946    2.5334 H         1 <0>         0.4597
      6 C4          2.6329   -1.0079    4.3619 C.2       1 <0>         0.0622
      7 C5          1.7060   -0.4443    5.1599 C.2       1 <0>         0.0550
      8 N2          0.5065   -0.6079    4.5824 N.pl3     1 <0>        -0.4726
      9 C6          1.9706    0.2527    6.4695 C.3       1 <0>        -0.1032
     10 C7          4.1187   -1.0596    4.6083 C.3       1 <0>         0.0689
     11 H2          4.3397   -0.6755    5.6042 H         1 <0>         0.1334
     12 C8          4.6119   -2.5052    4.4909 C.3       1 <0>        -0.1339
     13 C9          6.1051   -2.5698    4.3502 C.2       1 <0>         0.5346
     14 O1          6.7074   -3.4478    4.9312 O.2       1 <0>        -0.4939
     15 N3          6.8036   -1.6901    3.6027 N.am      1 <0>        -0.6314
     16 C10         6.1270   -0.5619    3.1112 C.2       1 <0>         0.3231
     17 C11         4.8350   -0.2305    3.5730 C.2       1 <0>        -0.2581
     18 C12         4.4350    0.9019    2.9225 C.2       1 <0>         0.2126
     19 N4          5.4581    1.2674    2.0896 N.pl3     1 <0>        -0.4485
     20 N5          6.4968    0.3336    2.2438 N.2       1 <0>        -0.2650
     21 H3          5.4643    2.0350    1.4967 H         1 <0>         0.4543
     22 C13         3.1467    1.5980    3.0862 C.2       1 <0>        -0.1368
     23 C14         2.8694    2.7525    3.7721 C.2       1 <0>        -0.0975
     24 C15         1.5737    3.2189    3.7848 C.2       1 <0>        -0.1483
     25 C16         0.6137    2.5250    3.1207 C.2       1 <0>        -0.1585
     26 S1          1.5419    1.1622    2.4364 S.3       1 <0>         0.0371
     27 H4          0.2522   -0.3728    0.9302 H         1 <0>         0.0746
     28 H5         -1.4698   -0.8071    0.8119 H         1 <0>         0.0996
     29 H6         -0.9352    0.3930    2.0128 H         1 <0>         0.0653
     30 H7         -1.3753   -1.8007    3.0818 H         1 <0>         0.1251
     31 H8         -0.1878   -2.5664    1.9993 H         1 <0>         0.1250
     32 H9          2.1482    1.3127    6.2876 H         1 <0>         0.1001
     33 H10         1.1069    0.1362    7.1242 H         1 <0>         0.0946
     34 H11         2.8481   -0.1865    6.9441 H         1 <0>         0.1069
     35 H12         4.3143   -3.0564    5.3829 H         1 <0>         0.1280
     36 H13         4.1519   -2.9683    3.6179 H         1 <0>         0.1020
     37 H14         7.7438   -1.8322    3.4111 H         1 <0>         0.4289
     38 H15         3.6516    3.2852    4.2925 H         1 <0>         0.1465
     39 H16         1.3241    4.1252    4.3166 H         1 <0>         0.1504
     40 H17        -0.4399    2.7434    3.0274 H         1 <0>         0.1962
     41 H18        -0.3377   -0.2938    4.9425 H         1 <0>         0.4606
@<TRIPOS>BOND
     1    1    2 1
     2    1   27 1
     3    1   28 1
     4    1   29 1
     5    2    3 1
     6    2   30 1
     7    2   31 1
     8    3    8 2
     9    3    4 1
    10    4    5 1
    11    4    6 1
    12    6    7 2
    13    6   10 1
    14    7    8 1
    15    7    9 1
    16    8   41 1
    17    9   32 1
    18    9   33 1
    19    9   34 1
    20   10   11 1
    21   10   12 1
    22   10   17 1
    23   12   13 1
    24   12   35 1
    25   12   36 1
    26   13   14 2
    27   13   15 am
    28   15   37 1
    29   15   16 1
    30   16   20 2
    31   16   17 1
    32   17   18 2
    33   18   22 1
    34   18   19 1
    35   19   20 1
    36   19   21 1
    37   22   26 1
    38   22   23 2
    39   23   24 1
    40   23   38 1
    41   24   25 2
    42   24   39 1
    43   25   26 1
    44   25   40 1
@<TRIPOS>MOLECULE
ZINC40301624
   33    34     0     0     0
SMALL
USER_CHARGES

@<TRIPOS>ATOM
      1 C1         -1.1872    1.1985    0.1672 C.3       1 <0>        -0.1167
      2 C2         -0.5164   -0.1481    0.0784 C.ar      1 <0>        -0.1010
      3 C3         -0.4901   -0.8293   -1.1230 C.ar      1 <0>        -0.0933
      4 C4          0.1260   -2.0655   -1.2054 C.ar      1 <0>        -0.0464
      5 C5          0.7169   -2.6230   -0.0849 C.ar      1 <0>        -0.0973
      6 C6          0.6935   -1.9463    1.1186 C.ar      1 <0>        -0.1051
      7 C7          0.0807   -0.7026    1.2027 C.ar      1 <0>         0.1519
      8 N1          0.0605   -0.0122    2.4194 N.am      1 <0>        -0.6695
      9 C8         -0.0407   -0.6924    3.5785 C.2       1 <0>         0.5813
     10 O1         -0.0355   -1.9089    3.5725 O.2       1 <0>        -0.5416
     11 C9         -0.1575    0.0363    4.8511 C.ar      1 <0>        -0.2938
     12 C10        -0.2819    1.4300    4.8536 C.ar      1 <0>         0.0115
     13 C11        -0.3902    2.1057    6.0341 C.ar      1 <0>        -0.2566
     14 C12        -0.3784    1.4157    7.2457 C.ar      1 <0>         0.2944
     15 C13        -0.2563    0.0328    7.2624 C.ar      1 <0>        -0.3000
     16 C14        -0.1504   -0.6653    6.0693 C.ar      1 <0>         0.3317
     17 N2         -0.0327   -2.0494    6.0778 N.pl3     1 <0>        -0.8526
     18 N3         -0.4891    2.1156    8.4424 N.pl3     1 <0>        -0.8645
     19 Cl1         0.1573   -2.9189   -2.7168 Cl        1 <0>        -0.0706
     20 H1         -0.4621    1.9810   -0.0564 H         1 <0>         0.0754
     21 H2         -2.0053    1.2450   -0.5515 H         1 <0>         0.0754
     22 H3         -1.5792    1.3434    1.1739 H         1 <0>         0.0674
     23 H4         -0.9511   -0.3968   -1.9987 H         1 <0>         0.1369
     24 H5          1.1965   -3.5884   -0.1517 H         1 <0>         0.1362
     25 H6          1.1545   -2.3820    1.9927 H         1 <0>         0.1498
     26 H7          0.1193    0.9559    2.4287 H         1 <0>         0.4113
     27 H8         -0.2918    1.9720    3.9195 H         1 <0>         0.1212
     28 H9         -0.4852    3.1815    6.0299 H         1 <0>         0.1240
     29 H10        -0.2471   -0.4983    8.2027 H         1 <0>         0.1254
     30 H11        -0.0334   -2.5413    5.2418 H         1 <0>         0.4175
     31 H12         0.0502   -2.5239    6.9198 H         1 <0>         0.3941
     32 H13        -0.5742    3.0818    8.4331 H         1 <0>         0.4023
     33 H14        -0.4811    1.6376    9.2864 H         1 <0>         0.4014
@<TRIPOS>BOND
     1    1    2 1
     2    1   20 1
     3    1   21 1
     4    1   22 1
     5    2    7 ar
     6    2    3 ar
     7    3    4 ar
     8    3   23 1
     9    4    5 ar
    10    4   19 1
    11    5    6 ar
    12    5   24 1
    13    6    7 ar
    14    6   25 1
    15    7    8 1
    16    8    9 am
    17    8   26 1
    18    9   10 2
    19    9   11 1
    20   11   16 ar
    21   11   12 ar
    22   12   13 ar
    23   12   27 1
    24   13   14 ar
    25   13   28 1
    26   14   15 ar
    27   14   18 1
    28   15   16 ar
    29   15   29 1
    30   16   17 1
    31   17   30 1
    32   17   31 1
    33   18   32 1
    34   18   33 1
@<TRIPOS>MOLECULE
ZINC40681496
   33    34     0     0     0
SMALL
USER_CHARGES

@<TRIPOS>ATOM
      1 C1          0.4814    1.4622   -0.0243 C.3       1 <0>        -0.1151
      2 C2          0.2404   -0.0253   -0.0156 C.ar      1 <0>        -0.0681
      3 C3          0.0029   -0.6935   -1.2026 C.ar      1 <0>        -0.1178
      4 C4         -0.2186   -2.0584   -1.1982 C.ar      1 <0>        -0.0685
      5 C5         -0.2035   -2.7579   -0.0071 C.ar      1 <0>        -0.1211
      6 C6          0.0346   -2.0897    1.1855 C.ar      1 <0>         0.1070
      7 C7          0.2626   -0.7211    1.1775 C.ar      1 <0>        -0.1213
      8 O1          0.0500   -2.7755    2.3585 O.3       1 <0>        -0.2491
      9 C8         -1.0334   -2.6756    3.1690 C.ar      1 <0>         0.3108
     10 C9         -1.0303   -3.2687    4.4305 C.ar      1 <0>         0.0478
     11 C10        -2.1717   -3.1352    5.2253 C.ar      1 <0>         0.4085
     12 N1         -3.2102   -2.4521    4.7512 N.ar      1 <0>        -0.5411
     13 C11        -3.1709   -1.9071    3.5521 C.ar      1 <0>         0.3190
     14 N2         -2.1120   -2.0059    2.7742 N.ar      1 <0>        -0.5585
     15 N3         -2.2214   -3.7072    6.4905 N.pl3     1 <0>        -0.5645
     16 N4         -3.3427   -3.5699    7.2585 N.3       1 <0>        -0.5912
     17 N5          0.0887   -3.9811    4.8896 N.pl3     1 <0>        -0.8681
     18 C12        -0.4771   -2.7833   -2.4938 C.3       1 <0>        -0.1151
     19 H1          1.5476    1.6569   -0.1407 H         1 <0>         0.0724
     20 H2         -0.0630    1.9137   -0.8536 H         1 <0>         0.0699
     21 H3          0.1341    1.8921    0.9153 H         1 <0>         0.0672
     22 H4         -0.0100   -0.1484   -2.1348 H         1 <0>         0.1265
     23 H5         -0.3773   -3.8238   -0.0040 H         1 <0>         0.1268
     24 H6          0.4526   -0.1994    2.1039 H         1 <0>         0.1225
     25 H7         -4.0315   -1.3591    3.1978 H         1 <0>         0.1995
     26 H8         -1.4599   -4.2039    6.8285 H         1 <0>         0.4076
     27 H9         -3.2321   -4.0360    8.1466 H         1 <0>         0.3562
     28 H10        -3.5758   -2.5967    7.3875 H         1 <0>         0.3460
     29 H11         0.8741   -4.0658    4.3267 H         1 <0>         0.4082
     30 H12         0.0766   -4.3885    5.7698 H         1 <0>         0.3926
     31 H13         0.4691   -3.1222   -2.9156 H         1 <0>         0.0730
     32 H14        -1.1203   -3.6433   -2.3068 H         1 <0>         0.0680
     33 H15        -0.9672   -2.1089   -3.1960 H         1 <0>         0.0699
@<TRIPOS>BOND
     1    1    2 1
     2    1   19 1
     3    1   20 1
     4    1   21 1
     5    2    7 ar
     6    2    3 ar
     7    3    4 ar
     8    3   22 1
     9    4    5 ar
    10    4   18 1
    11    5    6 ar
    12    5   23 1
    13    6    7 ar
    14    6    8 1
    15    7   24 1
    16    8    9 1
    17    9   14 ar
    18    9   10 ar
    19   10   11 ar
    20   10   17 1
    21   11   12 ar
    22   11   15 1
    23   12   13 ar
    24   13   14 ar
    25   13   25 1
    26   15   16 1
    27   15   26 1
    28   16   27 1
    29   16   28 1
    30   17   29 1
    31   17   30 1
    32   18   31 1
    33   18   32 1
    34   18   33 1
@<TRIPOS>MOLECULE
ZINC44660775
   37    39     0     0     0
SMALL
USER_CHARGES

@<TRIPOS>ATOM
      1 C1         -0.0150    1.4613    0.0903 C.ar      1 <0>        -0.1233
      2 C2          1.1729    2.1682    0.0982 C.ar      1 <0>        -0.1171
      3 C3          2.3790    1.4935    0.0686 C.ar      1 <0>        -0.1121
      4 C4          2.3972    0.1117    0.0315 C.ar      1 <0>        -0.0522
      5 C5          1.2094   -0.5952    0.0245 C.ar      1 <0>        -0.1200
      6 C6          0.0032    0.0796    0.0527 C.ar      1 <0>        -0.1159
      7 C7          3.7121   -0.6239   -0.0019 C.3       1 <0>        -0.1236
      8 H1          4.5511   -0.0682   -0.4206 H         1 <0>         0.1161
      9 C8          3.6710   -2.1333   -0.2482 C.3       1 <0>        -0.1843
     10 C9          4.0083   -1.5936    1.1439 C.3       1 <0>         0.0988
     11 H2          3.2522   -1.6995    1.9218 H         1 <0>         0.1403
     12 N1          5.3980   -1.7046    1.5939 N.am      1 <0>        -0.7013
     13 C10         5.6691   -2.1078    2.8511 C.2       1 <0>         0.5843
     14 O1          4.7599   -2.3795    3.6120 O.2       1 <0>        -0.5575
     15 C11         7.0648   -2.2193    3.3030 C.ar      1 <0>        -0.2913
     16 C12         8.1139   -2.0284    2.3970 C.ar      1 <0>         0.0112
     17 C13         9.4082   -2.1313    2.8164 C.ar      1 <0>        -0.2588
     18 C14         9.6970   -2.4274    4.1480 C.ar      1 <0>         0.2915
     19 C15         8.6689   -2.6200    5.0609 C.ar      1 <0>        -0.3000
     20 C16         7.3498   -2.5123    4.6480 C.ar      1 <0>         0.3286
     21 N2          6.3159   -2.6984    5.5567 N.pl3     1 <0>        -0.8536
     22 N3         11.0203   -2.5307    4.5633 N.pl3     1 <0>        -0.8660
     23 H3         -0.9572    1.9884    0.1180 H         1 <0>         0.1220
     24 H4          1.1587    3.2478    0.1272 H         1 <0>         0.1229
     25 H5          3.3071    2.0458    0.0740 H         1 <0>         0.1215
     26 H6          1.2236   -1.6747   -0.0049 H         1 <0>         0.1239
     27 H7         -0.9248   -0.4727    0.0469 H         1 <0>         0.1230
     28 H8          2.6930   -2.5944   -0.3862 H         1 <0>         0.1080
     29 H9          4.4833   -2.5708   -0.8287 H         1 <0>         0.1032
     30 H10         6.1231   -1.4879    0.9871 H         1 <0>         0.4015
     31 H11         7.8987   -1.7994    1.3637 H         1 <0>         0.1208
     32 H12        10.2138   -1.9830    2.1126 H         1 <0>         0.1223
     33 H13         8.8963   -2.8492    6.0915 H         1 <0>         0.1242
     34 H14         5.3958   -2.7053    5.2498 H         1 <0>         0.4178
     35 H15         6.5140   -2.8215    6.4983 H         1 <0>         0.3928
     36 H16        11.7401   -2.3968    3.9270 H         1 <0>         0.4016
     37 H17        11.2234   -2.7365    5.4892 H         1 <0>         0.4008
@<TRIPOS>BOND
     1    1    6 ar
     2    1    2 ar
     3    1   23 1
     4    2    3 ar
     5    2   24 1
     6    3    4 ar
     7    3   25 1
     8    4    5 ar
     9    4    7 1
    10    5    6 ar
    11    5   26 1
    12    6   27 1
    13    7    8 1
    14    7   10 1
    15    7    9 1
    16    9   10 1
    17    9   28 1
    18    9   29 1
    19   10   11 1
    20   10   12 1
    21   12   13 am
    22   12   30 1
    23   13   14 2
    24   13   15 1
    25   15   20 ar
    26   15   16 ar
    27   16   17 ar
    28   16   31 1
    29   17   18 ar
    30   17   32 1
    31   18   19 ar
    32   18   22 1
    33   19   20 ar
    34   19   33 1
    35   20   21 1
    36   21   34 1
    37   21   35 1
    38   22   36 1
    39   22   37 1
@<TRIPOS>MOLECULE
ZINC52016851
   36    37     0     0     0
SMALL
USER_CHARGES

@<TRIPOS>ATOM
      1 C1         -0.0168    1.3862    0.0097 C.ar      1 <0>        -0.1748
      2 C2          1.1950    2.0787    0.0018 C.ar      1 <0>        -0.0304
      3 C3          2.3815    1.3371   -0.0135 C.ar      1 <0>        -0.1898
      4 C4          2.3128   -0.0429   -0.0203 C.ar      1 <0>         0.2264
      5 N1          1.1489   -0.6649   -0.0125 N.ar      1 <0>        -0.5102
      6 C5          0.0021   -0.0041    0.0020 C.ar      1 <0>         0.4292
      7 N2         -1.1968   -0.7079    0.0101 N.pl3     1 <0>        -0.5660
      8 N3         -1.1870   -2.0738    0.0027 N.3       1 <0>        -0.5964
      9 Cl1         3.7790   -0.9722   -0.0398 Cl        1 <0>        -0.0213
     10 C6          1.2243    3.5600    0.0090 C.2       1 <0>         0.5654
     11 O1          0.1843    4.1882    0.0219 O.2       1 <0>        -0.5242
     12 N4          2.4046    4.2107    0.0012 N.am      1 <0>        -0.7087
     13 C7          2.4336    5.6754    0.0083 C.3       1 <0>         0.1548
     14 H1          1.5936    6.0583   -0.5713 H         1 <0>         0.0980
     15 C8          2.3314    6.1806    1.4489 C.3       1 <0>        -0.1293
     16 C9          2.3617    7.7102    1.4564 C.3       1 <0>        -0.1203
     17 C10         3.6731    8.1974    0.8369 C.3       1 <0>        -0.1209
     18 C11         3.7752    7.6923   -0.6037 C.3       1 <0>        -0.1497
     19 C12         3.7450    6.1626   -0.6111 C.3       1 <0>         0.0978
     20 H2          4.5849    5.7798   -0.0314 H         1 <0>         0.0619
     21 O2          3.8404    5.6908   -1.9566 O.3       1 <0>        -0.5621
     22 H3         -0.9544    1.9219    0.0260 H         1 <0>         0.1526
     23 H4          3.3388    1.8370   -0.0203 H         1 <0>         0.1450
     24 H5         -2.0403   -0.2290    0.0211 H         1 <0>         0.4168
     25 H6         -2.1264   -2.4422    0.0101 H         1 <0>         0.3580
     26 H7         -0.6661   -2.4274   -0.7858 H         1 <0>         0.3461
     27 H8          3.2348    3.7093   -0.0091 H         1 <0>         0.4029
     28 H9          1.3971    5.8335    1.8903 H         1 <0>         0.0769
     29 H10         3.1713    5.7977    2.0286 H         1 <0>         0.0686
     30 H11         1.5217    8.0931    0.8767 H         1 <0>         0.0680
     31 H12         2.2889    8.0701    2.4827 H         1 <0>         0.0711
     32 H13         3.6946    9.2872    0.8422 H         1 <0>         0.0701
     33 H14         4.5130    7.8146    1.4166 H         1 <0>         0.0657
     34 H15         2.9353    8.0751   -1.1834 H         1 <0>         0.0753
     35 H16         4.7095    8.0394   -1.0450 H         1 <0>         0.0720
     36 H17         4.6489    5.9624   -2.4123 H         1 <0>         0.3814
@<TRIPOS>BOND
     1    1    6 ar
     2    1    2 ar
     3    1   22 1
     4    2    3 ar
     5    2   10 1
     6    3    4 ar
     7    3   23 1
     8    4    5 ar
     9    4    9 1
    10    5    6 ar
    11    6    7 1
    12    7    8 1
    13    7   24 1
    14    8   25 1
    15    8   26 1
    16   10   11 2
    17   10   12 am
    18   12   13 1
    19   12   27 1
    20   13   14 1
    21   13   19 1
    22   13   15 1
    23   15   16 1
    24   15   28 1
    25   15   29 1
    26   16   17 1
    27   16   30 1
    28   16   31 1
    29   17   18 1
    30   17   32 1
    31   17   33 1
    32   18   19 1
    33   18   34 1
    34   18   35 1
    35   19   20 1
    36   19   21 1
    37   21   36 1
@<TRIPOS>MOLECULE
ZINC63113673
   39    39     0     0     0
SMALL
USER_CHARGES

@<TRIPOS>ATOM
      1 C1         -0.1092    1.5932   -0.1415 C.3       1 <0>        -0.1511
      2 C2         -0.0571    0.0651   -0.0865 C.3       1 <0>        -0.1498
      3 C3         -1.4813   -0.4929   -0.0510 C.3       1 <0>         0.1433
      4 N1         -1.4354   -1.9547   -0.1351 N.pl3     1 <0>        -0.6437
      5 C4         -1.4753   -2.7248    1.0336 C.ar      1 <0>         0.0760
      6 C5         -2.6923   -3.1461    1.5474 C.ar      1 <0>        -0.0484
      7 C6         -2.7294   -3.9070    2.7014 C.ar      1 <0>        -0.1816
      8 C7         -1.5554   -4.2499    3.3461 C.ar      1 <0>        -0.0717
      9 C8         -0.3374   -3.8341    2.8406 C.ar      1 <0>        -0.2063
     10 C9         -0.2907   -3.0753    1.6810 C.ar      1 <0>         0.2139
     11 N2          0.9419   -2.6576    1.1644 N.pl3     1 <0>        -0.8783
     12 C10        -1.3476   -2.6108   -1.4421 C.3       1 <0>         0.1573
     13 H1         -1.2092   -1.8579   -2.2180 H         1 <0>         0.1081
     14 C11        -0.1600   -3.5754   -1.4498 C.3       1 <0>        -0.1604
     15 C12        -2.6185   -3.3765   -1.7061 C.2       1 <0>         0.4939
     16 O1         -3.4561   -3.4794   -0.8357 O.2       1 <0>        -0.4450
     17 N3         -2.8238   -3.9469   -2.9098 N.am      1 <0>        -0.6931
     18 C13        -3.9604   -4.6317   -3.1459 C.2       1 <0>         0.6944
     19 O2         -4.8001   -4.7348   -2.2734 O.2       1 <0>        -0.5333
     20 N4         -4.1658   -5.2021   -4.3496 N.am      1 <0>        -0.8595
     21 H2          0.9054    1.9907   -0.1668 H         1 <0>         0.0551
     22 H3         -0.6446    1.9064   -1.0378 H         1 <0>         0.0544
     23 H4         -0.6256    1.9711    0.7409 H         1 <0>         0.0553
     24 H5          0.4592   -0.3129   -0.9689 H         1 <0>         0.0594
     25 H6          0.4783   -0.2482    0.8098 H         1 <0>         0.0677
     26 H7         -1.9641   -0.1976    0.8806 H         1 <0>         0.0710
     27 H8         -2.0474   -0.0980   -0.8946 H         1 <0>         0.0619
     28 H9         -3.6113   -2.8797    1.0465 H         1 <0>         0.1381
     29 H10        -3.6782   -4.2340    3.1004 H         1 <0>         0.1156
     30 H11        -1.5898   -4.8441    4.2473 H         1 <0>         0.1172
     31 H12         0.5777   -4.1036    3.3469 H         1 <0>         0.1166
     32 H13         0.9728   -2.1238    0.3552 H         1 <0>         0.3976
     33 H14         1.7649   -2.9022    1.6158 H         1 <0>         0.3927
     34 H15         0.7591   -3.0216   -1.2588 H         1 <0>         0.0729
     35 H16        -0.2985   -4.3283   -0.6738 H         1 <0>         0.0689
     36 H17        -0.0948   -4.0636   -2.4222 H         1 <0>         0.0656
     37 H18        -2.1536   -3.8645   -3.6062 H         1 <0>         0.4069
     38 H19        -3.4956   -5.1197   -5.0460 H         1 <0>         0.3989
     39 H20        -4.9838   -5.6949   -4.5196 H         1 <0>         0.4197
@<TRIPOS>BOND
     1    1    2 1
     2    1   21 1
     3    1   22 1
     4    1   23 1
     5    2    3 1
     6    2   24 1
     7    2   25 1
     8    3    4 1
     9    3   26 1
    10    3   27 1
    11    4    5 1
    12    4   12 1
    13    5   10 ar
    14    5    6 ar
    15    6    7 ar
    16    6   28 1
    17    7    8 ar
    18    7   29 1
    19    8    9 ar
    20    8   30 1
    21    9   10 ar
    22    9   31 1
    23   10   11 1
    24   11   32 1
    25   11   33 1
    26   12   13 1
    27   12   14 1
    28   12   15 1
    29   14   34 1
    30   14   35 1
    31   14   36 1
    32   15   16 2
    33   15   17 am
    34   17   18 am
    35   17   37 1
    36   18   19 2
    37   18   20 am
    38   20   38 1
    39   20   39 1
@<TRIPOS>MOLECULE
ZINC09588499
   59    62     0     0     0
SMALL
USER_CHARGES
N-benzyl-4-(cyclohexylcarbamoylmethyl)-3-oxo-2H-quinoxaline-1-carboxamide
@<TRIPOS>ATOM
      1 C1         -1.6142   12.2166   -0.1876 C.ar      1 <0>        -0.1089
      2 C2         -1.1853   11.6429   -1.3700 C.ar      1 <0>        -0.1213
      3 C3         -1.3874   10.2944   -1.5971 C.ar      1 <0>        -0.0985
      4 C4         -2.0189    9.5197   -0.6422 C.ar      1 <0>        -0.1148
      5 C5         -2.4529   10.0945    0.5377 C.ar      1 <0>        -0.0986
      6 C6         -2.2460   11.4419    0.7671 C.ar      1 <0>        -0.1221
      7 C7         -2.2397    8.0497   -0.8900 C.3       1 <0>         0.1791
      8 N1         -1.0895    7.2921   -0.3906 N.am      1 <0>        -0.7359
      9 C8         -1.0658    5.9494   -0.5052 C.2       1 <0>         0.7146
     10 O1         -1.9550    5.3745   -1.1027 O.2       1 <0>        -0.5586
     11 N2         -0.0564    5.2441    0.0427 N.am      1 <0>        -0.5713
     12 C9          1.0910    5.9204    0.6661 C.3       1 <0>         0.0987
     13 C10         2.3575    5.2059    0.2695 C.2       1 <0>         0.5173
     14 O2          3.3980    5.8254    0.1995 O.2       1 <0>        -0.5092
     15 N3          2.3483    3.8883   -0.0076 N.am      1 <0>        -0.5264
     16 C11         1.1532    3.1608    0.0159 C.ar      1 <0>         0.1358
     17 C12        -0.0664    3.8401    0.0355 C.ar      1 <0>         0.1379
     18 C13        -1.2555    3.1346    0.0510 C.ar      1 <0>        -0.0877
     19 C14        -1.2328    1.7508    0.0444 C.ar      1 <0>        -0.1172
     20 C15        -0.0264    1.0756    0.0334 C.ar      1 <0>        -0.1008
     21 C16         1.1665    1.7755    0.0156 C.ar      1 <0>        -0.1363
     22 C17         3.6034    3.2088   -0.3379 C.3       1 <0>         0.0837
     23 C18         3.8295    3.2671   -1.8267 C.2       1 <0>         0.4993
     24 O3          3.0216    3.8215   -2.5415 O.2       1 <0>        -0.5193
     25 N4          4.9293    2.7030   -2.3639 N.am      1 <0>        -0.7257
     26 C19         5.1491    2.7596   -3.8112 C.3       1 <0>         0.1465
     27 C20         4.4063    1.6043   -4.4854 C.3       1 <0>        -0.1280
     28 C21         4.6358    1.6634   -5.9969 C.3       1 <0>        -0.1180
     29 C22         6.1329    1.5475   -6.2904 C.3       1 <0>        -0.1222
     30 C23         6.8757    2.7028   -5.6162 C.3       1 <0>        -0.1167
     31 C24         6.6462    2.6437   -4.1047 C.3       1 <0>        -0.1259
     32 H1         -1.4559   13.2700   -0.0100 H         1 <0>         0.1244
     33 H2         -0.6919   12.2482   -2.1160 H         1 <0>         0.1253
     34 H3         -1.0524    9.8462   -2.5208 H         1 <0>         0.1247
     35 H4         -2.9501    9.4901    1.2819 H         1 <0>         0.1249
     36 H5         -2.5814   11.8902    1.6907 H         1 <0>         0.1254
     37 H6         -2.3533    7.8746   -1.9598 H         1 <0>         0.0799
     38 H7         -3.1416    7.7252   -0.3710 H         1 <0>         0.0799
     39 H8         -0.3450    7.7569    0.0225 H         1 <0>         0.3980
     40 H9          0.9832    5.8966    1.7505 H         1 <0>         0.1144
     41 H10         1.1339    6.9548    0.3252 H         1 <0>         0.1214
     42 H11        -2.1983    3.6613    0.0636 H         1 <0>         0.1472
     43 H12        -2.1598    1.1968    0.0520 H         1 <0>         0.1322
     44 H13        -0.0153   -0.0043    0.0341 H         1 <0>         0.1313
     45 H14         2.1061    1.2433    0.0013 H         1 <0>         0.1304
     46 H15         4.4294    3.7021    0.1746 H         1 <0>         0.1244
     47 H16         3.5479    2.1679   -0.0193 H         1 <0>         0.1199
     48 H17         5.5754    2.2595   -1.7922 H         1 <0>         0.4004
     49 H18         4.7751    3.7073   -4.1987 H         1 <0>         0.0869
     50 H19         4.7802    0.6566   -4.0979 H         1 <0>         0.0640
     51 H20         3.3397    1.6868   -4.2763 H         1 <0>         0.0664
     52 H21         4.2619    2.6111   -6.3844 H         1 <0>         0.0639
     53 H22         4.1066    0.8403   -6.4772 H         1 <0>         0.0659
     54 H23         6.2964    1.5897   -7.3672 H         1 <0>         0.0648
     55 H24         6.5068    0.5998   -5.9029 H         1 <0>         0.0631
     56 H25         6.5017    3.6505   -6.0037 H         1 <0>         0.0650
     57 H26         7.9422    2.6203   -5.8253 H         1 <0>         0.0684
     58 H27         7.1753    3.4668   -3.6244 H         1 <0>         0.0690
     59 H28         7.0201    1.6960   -3.7172 H         1 <0>         0.0689
@<TRIPOS>BOND
     1    1    6 ar
     2    1    2 ar
     3    1   32 1
     4    2    3 ar
     5    2   33 1
     6    3    4 ar
     7    3   34 1
     8    4    5 ar
     9    4    7 1
    10    5    6 ar
    11    5   35 1
    12    6   36 1
    13    7    8 1
    14    7   37 1
    15    7   38 1
    16    8    9 am
    17    8   39 1
    18    9   10 2
    19    9   11 am
    20   11   17 1
    21   11   12 1
    22   12   13 1
    23   12   40 1
    24   12   41 1
    25   13   14 2
    26   13   15 am
    27   15   16 1
    28   15   22 1
    29   16   21 ar
    30   16   17 ar
    31   17   18 ar
    32   18   19 ar
    33   18   42 1
    34   19   20 ar
    35   19   43 1
    36   20   21 ar
    37   20   44 1
    38   21   45 1
    39   22   23 1
    40   22   46 1
    41   22   47 1
    42   23   24 2
    43   23   25 am
    44   25   26 1
    45   25   48 1
    46   26   31 1
    47   26   27 1
    48   26   49 1
    49   27   28 1
    50   27   50 1
    51   27   51 1
    52   28   29 1
    53   28   52 1
    54   28   53 1
    55   29   30 1
    56   29   54 1
    57   29   55 1
    58   30   31 1
    59   30   56 1
    60   30   57 1
    61   31   58 1
    62   31   59 1
@<TRIPOS>MOLECULE
ZINC16309831
   43    45     0     0     0
SMALL
USER_CHARGES
(3R)-N-[(5-bromo-3-ethoxy-2-hydroxy-phenyl)methyleneamino]-2,3-dihydro-1,4-benzodioxine-3-carboxamide
@<TRIPOS>ATOM
      1 C1          0.3525   15.8058   -2.8684 C.3       1 <0>        -0.1529
      2 C2         -0.9194   15.4365   -2.1024 C.3       1 <0>         0.0492
      3 O1         -0.8931   14.0450   -1.7782 O.3       1 <0>        -0.2979
      4 C3         -1.9580   13.5507   -1.0918 C.ar      1 <0>         0.1098
      5 C4         -3.0043   14.3887   -0.7386 C.ar      1 <0>        -0.1556
      6 C5         -4.0918   13.8926   -0.0393 C.ar      1 <0>        -0.0660
      7 C6         -4.1467   12.5581    0.3070 C.ar      1 <0>        -0.0834
      8 C7         -3.0962   11.7035   -0.0376 C.ar      1 <0>        -0.0427
      9 C8         -1.9969   12.2060   -0.7443 C.ar      1 <0>         0.1333
     10 O2         -0.9725   11.3819   -1.0892 O.3       1 <0>        -0.4561
     11 C9         -3.1480   10.2786    0.3356 C.2       1 <0>         0.1071
     12 N1         -2.1731    9.4864    0.0093 N.2       1 <0>        -0.1919
     13 N2         -2.2223    8.1319    0.3641 N.am      1 <0>        -0.5826
     14 C10        -1.2100    7.3093    0.0252 C.2       1 <0>         0.5413
     15 O3         -0.2561    7.7417   -0.5871 O.2       1 <0>        -0.4590
     16 C11        -1.2629    5.8524    0.4069 C.3       1 <0>         0.0422
     17 H1         -1.4017    5.7589    1.4839 H         1 <0>         0.1167
     18 C12        -2.4244    5.1674   -0.3260 C.3       1 <0>         0.0339
     19 O4         -2.4371    3.7853    0.0479 O.3       1 <0>        -0.2979
     20 C13        -1.2410    3.1361    0.0299 C.ar      1 <0>         0.0433
     21 C14        -1.2193    1.7493    0.0173 C.ar      1 <0>        -0.1098
     22 C15        -0.0126    1.0758    0.0080 C.ar      1 <0>        -0.1132
     23 C16         1.1759    1.7821    0.0004 C.ar      1 <0>        -0.1109
     24 C17         1.1613    3.1640    0.0067 C.ar      1 <0>        -0.1079
     25 C18        -0.0464    3.8461    0.0203 C.ar      1 <0>         0.0509
     26 O5         -0.0451    5.2072    0.0190 O.3       1 <0>        -0.2776
     27 Br1        -5.5114   15.0477    0.4362 Br        1 <0>        -0.0339
     28 H2          0.3324   16.8672   -3.1157 H         1 <0>         0.0812
     29 H3          1.2241   15.5934   -2.2493 H         1 <0>         0.0688
     30 H4          0.4071   15.2200   -3.7859 H         1 <0>         0.0679
     31 H5         -1.7910   15.6489   -2.7215 H         1 <0>         0.0649
     32 H6         -0.9740   16.0224   -1.1848 H         1 <0>         0.0653
     33 H7         -2.9710   15.4336   -1.0099 H         1 <0>         0.1451
     34 H8         -4.9991   12.1752    0.8485 H         1 <0>         0.1459
     35 H9         -1.0817   10.9584   -1.9516 H         1 <0>         0.3933
     36 H10        -3.9972    9.8937    0.8807 H         1 <0>         0.1307
     37 H11        -2.9851    7.7862    0.8536 H         1 <0>         0.3870
     38 H12        -2.2826    5.2555   -1.4031 H         1 <0>         0.0880
     39 H13        -3.3669    5.6343   -0.0399 H         1 <0>         0.1264
     40 H14        -2.1463    1.1952    0.0194 H         1 <0>         0.1371
     41 H15         0.0021   -0.0041    0.0020 H         1 <0>         0.1353
     42 H16         2.1174    1.2531   -0.0101 H         1 <0>         0.1359
     43 H17         2.0911    3.7134    0.0014 H         1 <0>         0.1385
@<TRIPOS>BOND
     1    1    2 1
     2    1   28 1
     3    1   29 1
     4    1   30 1
     5    2    3 1
     6    2   31 1
     7    2   32 1
     8    3    4 1
     9    4    9 ar
    10    4    5 ar
    11    5    6 ar
    12    5   33 1
    13    6    7 ar
    14    6   27 1
    15    7    8 ar
    16    7   34 1
    17    8    9 ar
    18    8   11 1
    19    9   10 1
    20   10   35 1
    21   11   12 2
    22   11   36 1
    23   12   13 1
    24   13   14 am
    25   13   37 1
    26   14   15 2
    27   14   16 1
    28   16   17 1
    29   16   26 1
    30   16   18 1
    31   18   19 1
    32   18   38 1
    33   18   39 1
    34   19   20 1
    35   20   25 ar
    36   20   21 ar
    37   21   22 ar
    38   21   40 1
    39   22   23 ar
    40   22   41 1
    41   23   24 ar
    42   23   42 1
    43   24   25 ar
    44   24   43 1
    45   25   26 1
@<TRIPOS>MOLECULE
ZINC38657493
   51    54     0     0     0
SMALL
USER_CHARGES

@<TRIPOS>ATOM
      1 C1         -0.7892    1.9310    0.3783 C.3       1 <0>        -0.1184
      2 C2         -1.8811    1.0256    0.8872 C.ar      1 <0>        -0.0409
      3 C3         -3.1146    1.0125    0.2627 C.ar      1 <0>        -0.1549
      4 C4         -4.1184    0.1826    0.7269 C.ar      1 <0>        -0.0404
      5 C5         -3.8910   -0.6356    1.8166 C.ar      1 <0>        -0.1520
      6 C6         -2.6542   -0.6243    2.4449 C.ar      1 <0>         0.1347
      7 C7         -1.6469    0.2051    1.9736 C.ar      1 <0>        -0.2169
      8 O1         -2.4280   -1.4283    3.5170 O.3       1 <0>        -0.2945
      9 C8         -1.1312   -1.3643    4.1137 C.3       1 <0>         0.0742
     10 C9         -1.0670   -2.3176    5.2792 C.2       1 <0>         0.4623
     11 O2         -2.0327   -2.9835    5.5690 O.2       1 <0>        -0.4567
     12 O3          0.0634   -2.4270    5.9955 O.3       1 <0>        -0.2881
     13 C10         0.0455   -3.2212    7.0984 C.ar      1 <0>         0.1169
     14 C11         0.1066   -4.6011    6.9623 C.ar      1 <0>        -0.1220
     15 C12         0.0883   -5.4065    8.0837 C.ar      1 <0>        -0.0569
     16 C13         0.0087   -4.8437    9.3453 C.ar      1 <0>        -0.1202
     17 C14        -0.0525   -3.4663    9.4870 C.ar      1 <0>         0.1359
     18 C15        -0.0279   -2.6544    8.3602 C.ar      1 <0>        -0.1210
     19 O4         -0.1308   -2.8961   10.7147 O.3       1 <0>        -0.2402
     20 C16         0.2305   -3.5960   11.8030 C.2       1 <0>         0.4484
     21 C17         0.3071   -4.9479   11.7928 C.2       1 <0>        -0.2855
     22 C18        -0.0111   -5.7393   10.5556 C.3       1 <0>         0.1289
     23 H1         -0.9997   -6.1868   10.6575 H         1 <0>         0.1226
     24 C19         1.0128   -6.8318   10.3849 C.2       1 <0>        -0.0104
     25 C20         0.7578   -8.1524   10.3627 C.2       1 <0>        -0.1982
     26 C21         1.9984   -8.8062   10.1831 C.2       1 <0>        -0.2129
     27 C22         2.9374   -7.8460   10.1063 C.2       1 <0>        -0.0370
     28 O5          2.3339   -6.6519   10.2234 O.3       1 <0>        -0.1649
     29 C23         0.6997   -5.6373   12.9850 C.1       1 <0>         0.2726
     30 N1          1.0112   -6.1842   13.9307 N.1       1 <0>        -0.4385
     31 N2          0.5314   -2.9207   12.9595 N.pl3     1 <0>        -0.8266
     32 C24        -5.4616    0.1709    0.0439 C.3       1 <0>        -0.1176
     33 H2         -0.2033    1.4054   -0.3757 H         1 <0>         0.0747
     34 H3         -1.2333    2.8231   -0.0634 H         1 <0>         0.0703
     35 H4         -0.1412    2.2195    1.2059 H         1 <0>         0.0680
     36 H5         -3.2946    1.6520   -0.5888 H         1 <0>         0.1254
     37 H6         -4.6756   -1.2831    2.1792 H         1 <0>         0.1329
     38 H7         -0.6817    0.2124    2.4583 H         1 <0>         0.1292
     39 H8         -0.3778   -1.6409    3.3762 H         1 <0>         0.1122
     40 H9         -0.9419   -0.3495    4.4636 H         1 <0>         0.1124
     41 H10         0.1680   -5.0448    5.9796 H         1 <0>         0.1404
     42 H11         0.1360   -6.4801    7.9757 H         1 <0>         0.1447
     43 H12        -0.0709   -1.5806    8.4678 H         1 <0>         0.1504
     44 H13        -0.2091   -8.6230   10.4633 H         1 <0>         0.1497
     45 H14         2.1611   -9.8720   10.1200 H         1 <0>         0.1490
     46 H15         3.9964   -8.0078    9.9696 H         1 <0>         0.2024
     47 H16         0.4815   -1.9522   12.9825 H         1 <0>         0.4132
     48 H17         0.7939   -3.4119   13.7536 H         1 <0>         0.4270
     49 H18        -5.4597   -0.5772   -0.7488 H         1 <0>         0.0756
     50 H19        -6.2367   -0.0719    0.7708 H         1 <0>         0.0703
     51 H20        -5.6601    1.1535   -0.3842 H         1 <0>         0.0706
@<TRIPOS>BOND
     1    1    2 1
     2    1   33 1
     3    1   34 1
     4    1   35 1
     5    2    7 ar
     6    2    3 ar
     7    3    4 ar
     8    3   36 1
     9    4    5 ar
    10    4   32 1
    11    5    6 ar
    12    5   37 1
    13    6    7 ar
    14    6    8 1
    15    7   38 1
    16    8    9 1
    17    9   10 1
    18    9   39 1
    19    9   40 1
    20   10   11 2
    21   10   12 1
    22   12   13 1
    23   13   18 ar
    24   13   14 ar
    25   14   15 ar
    26   14   41 1
    27   15   16 ar
    28   15   42 1
    29   16   22 1
    30   16   17 ar
    31   17   18 ar
    32   17   19 1
    33   18   43 1
    34   19   20 1
    35   20   21 2
    36   20   31 1
    37   21   22 1
    38   21   29 1
    39   22   23 1
    40   22   24 1
    41   24   28 1
    42   24   25 2
    43   25   26 1
    44   25   44 1
    45   26   27 2
    46   26   45 1
    47   27   28 1
    48   27   46 1
    49   29   30 3
    50   31   47 1
    51   31   48 1
    52   32   49 1
    53   32   50 1
    54   32   51 1
@<TRIPOS>MOLECULE
ZINC46767894
   45    47     0     0     0
SMALL
USER_CHARGES

@<TRIPOS>ATOM
      1 C1         -0.0187    1.5258    0.0104 C.3       1 <0>        -0.1711
      2 C2          0.0021   -0.0041    0.0020 C.3       1 <0>         0.0806
      3 H1          0.5293   -0.3651    0.8851 H         1 <0>         0.1203
      4 C3          0.7074   -0.4901   -1.2379 C.2       1 <0>         0.5258
      5 O1          0.0953   -1.1145   -2.0784 O.2       1 <0>        -0.4778
      6 N1          2.0184   -0.2309   -1.4127 N.am      1 <0>        -0.6441
      7 C4          2.6713   -0.6807   -2.5602 C.2       1 <0>         0.2999
      8 C5          2.1097   -1.3832   -3.5818 C.2       1 <0>        -0.2757
      9 C6          3.1068   -1.6323   -4.5288 C.2       1 <0>         0.0587
     10 N2          4.2237   -1.1032   -4.0990 N.2       1 <0>        -0.2806
     11 N3          3.9761   -0.4929   -2.8628 N.pl3     1 <0>        -0.3794
     12 C7          4.9576    0.2201   -2.0415 C.3       1 <0>         0.1556
     13 C8          6.0967   -0.7305   -1.6677 C.3       1 <0>        -0.1621
     14 C9          5.5197    1.4040   -2.8311 C.3       1 <0>        -0.1616
     15 O2         -1.3386   -0.4987    0.0122 O.3       1 <0>        -0.3241
     16 C10        -1.9015   -0.7171    1.2181 C.2       1 <0>         0.5284
     17 O3         -1.2705   -0.4933    2.2331 O.2       1 <0>        -0.4599
     18 C11        -3.2756   -1.2247    1.3053 C.2       1 <0>         0.0645
     19 C12        -3.9520   -1.4781    2.4586 C.2       1 <0>        -0.0762
     20 C13        -5.2398   -1.9520    2.1074 C.ar      1 <0>        -0.1033
     21 C14        -6.3499   -2.3640    2.8562 C.ar      1 <0>        -0.0555
     22 C15        -7.4823   -2.7796    2.2187 C.ar      1 <0>        -0.1387
     23 C16        -7.5465   -2.7986    0.8309 C.ar      1 <0>        -0.0748
     24 C17        -6.4691   -2.3985    0.0730 C.ar      1 <0>        -0.1303
     25 C18        -5.3022   -1.9702    0.7005 C.ar      1 <0>         0.1277
     26 N4         -4.0932   -1.5167    0.2283 N.pl3     1 <0>        -0.5547
     27 H2         -3.8524   -1.4194   -0.7063 H         1 <0>         0.4336
     28 Br1        -3.2910   -1.2413    4.2145 Br        1 <0>         0.0139
     29 H3          1.0039    1.9031    0.0027 H         1 <0>         0.0833
     30 H4         -0.5459    1.8868   -0.8726 H         1 <0>         0.0787
     31 H5         -0.5289    1.8773    0.9072 H         1 <0>         0.0848
     32 H6          2.5080    0.2685   -0.7405 H         1 <0>         0.4114
     33 H7          1.0773   -1.6934   -3.6484 H         1 <0>         0.1715
     34 H8          2.9777   -2.1698   -5.4566 H         1 <0>         0.1877
     35 H9          4.4759    0.5845   -1.1341 H         1 <0>         0.0899
     36 H10         6.5784   -1.0949   -2.5751 H         1 <0>         0.0749
     37 H11         6.8269   -0.2000   -1.0566 H         1 <0>         0.0774
     38 H12         5.6962   -1.5739   -1.1052 H         1 <0>         0.0604
     39 H13         4.7082    2.0812   -3.0974 H         1 <0>         0.0603
     40 H14         6.2499    1.9345   -2.2200 H         1 <0>         0.0773
     41 H15         6.0014    1.0396   -3.7385 H         1 <0>         0.0748
     42 H16        -6.3092   -2.3530    3.9354 H         1 <0>         0.1317
     43 H17        -8.3366   -3.0971    2.7982 H         1 <0>         0.1317
     44 H18        -8.4504   -3.1307    0.3420 H         1 <0>         0.1344
     45 H19        -6.5287   -2.4172   -1.0052 H         1 <0>         0.1309
@<TRIPOS>BOND
     1    1    2 1
     2    1   29 1
     3    1   30 1
     4    1   31 1
     5    2    3 1
     6    2    4 1
     7    2   15 1
     8    4    5 2
     9    4    6 am
    10    6    7 1
    11    6   32 1
    12    7   11 1
    13    7    8 2
    14    8    9 1
    15    8   33 1
    16    9   10 2
    17    9   34 1
    18   10   11 1
    19   11   12 1
    20   12   13 1
    21   12   14 1
    22   12   35 1
    23   13   36 1
    24   13   37 1
    25   13   38 1
    26   14   39 1
    27   14   40 1
    28   14   41 1
    29   15   16 1
    30   16   17 2
    31   16   18 1
    32   18   26 1
    33   18   19 2
    34   19   20 1
    35   19   28 1
    36   20   25 ar
    37   20   21 ar
    38   21   22 ar
    39   21   42 1
    40   22   23 ar
    41   22   43 1
    42   23   24 ar
    43   23   44 1
    44   24   25 ar
    45   24   45 1
    46   25   26 1
    47   26   27 1
@<TRIPOS>MOLECULE
ZINC32072569
   51    54     0     0     0
SMALL
USER_CHARGES

@<TRIPOS>ATOM
      1 C1          0.6086    1.5505    0.3992 C.3       1 <0>        -0.0724
      2 C2          0.4831    0.0608    0.2087 C.2       1 <0>        -0.1705
      3 C3          0.4557   -0.6208   -1.0239 C.2       1 <0>         0.1303
      4 N1          0.3371   -1.9138   -0.7827 N.2       1 <0>        -0.2492
      5 N2          0.2874   -2.0979    0.5937 N.pl3     1 <0>        -0.3972
      6 C4          0.3821   -0.8657    1.1922 C.2       1 <0>         0.2611
      7 N3          0.3597   -0.7206    2.5506 N.2       1 <0>        -0.5087
      8 C5          0.5803   -1.7692    3.2901 C.2       1 <0>         0.3623
      9 C6          0.8905   -3.1194    2.7117 C.3       1 <0>        -0.1173
     10 C7          0.1673   -3.3327    1.3737 C.3       1 <0>         0.1587
     11 H1          0.6387   -4.1552    0.8358 H         1 <0>         0.1525
     12 C8         -1.2877   -3.6457    1.6103 C.2       1 <0>         0.5032
     13 O1         -2.1457   -2.9096    1.1708 O.2       1 <0>        -0.4769
     14 N4         -1.6357   -4.7436    2.3104 N.am      1 <0>        -0.6735
     15 C9         -2.9850   -5.0885    2.4458 C.ar      1 <0>         0.1953
     16 C10        -3.9520   -4.0953    2.5321 C.ar      1 <0>        -0.1231
     17 C11        -5.2827   -4.4390    2.6656 C.ar      1 <0>        -0.0654
     18 C12        -5.6530   -5.7707    2.7139 C.ar      1 <0>        -0.1306
     19 C13        -4.6928   -6.7618    2.6287 C.ar      1 <0>        -0.0532
     20 C14        -3.3606   -6.4246    2.4884 C.ar      1 <0>        -0.2115
     21 C15        -2.3153   -7.5056    2.3883 C.3       1 <0>         0.5093
     22 F1         -2.9330   -8.7591    2.4547 F         1 <0>        -0.1701
     23 F2         -1.6347   -7.3849    1.1720 F         1 <0>        -0.1735
     24 F3         -1.4080   -7.3762    3.4452 F         1 <0>        -0.1792
     25 O2          0.5275   -1.6371    4.6314 O.3       1 <0>        -0.4524
     26 C16         0.5445    0.0076   -2.3656 C.ar      1 <0>        -0.0530
     27 C17         1.4484    1.0436   -2.5928 C.ar      1 <0>        -0.0524
     28 C18         1.5287    1.6257   -3.8406 C.ar      1 <0>        -0.1515
     29 C19         0.7102    1.1805   -4.8696 C.ar      1 <0>         0.1372
     30 C20        -0.1914    0.1489   -4.6461 C.ar      1 <0>        -0.2090
     31 C21        -0.2718   -0.4411   -3.4020 C.ar      1 <0>        -0.0468
     32 O3          0.7915    1.7558   -6.0980 O.3       1 <0>        -0.3159
     33 C22        -0.0798    1.2488   -7.1108 C.3       1 <0>         0.0255
     34 H2          1.6560    1.8101    0.5528 H         1 <0>         0.0648
     35 H3          0.2334    2.0629   -0.4867 H         1 <0>         0.0690
     36 H4          0.0272    1.8558    1.2691 H         1 <0>         0.0683
     37 H5          1.9664   -3.2028    2.5581 H         1 <0>         0.1360
     38 H6          0.5711   -3.8898    3.4136 H         1 <0>         0.1275
     39 H7         -0.9507   -5.2946    2.7204 H         1 <0>         0.4140
     40 H8         -3.6634   -3.0552    2.4951 H         1 <0>         0.1495
     41 H9         -6.0351   -3.6671    2.7328 H         1 <0>         0.1389
     42 H10        -6.6944   -6.0369    2.8188 H         1 <0>         0.1398
     43 H11        -4.9851   -7.8008    2.6671 H         1 <0>         0.1451
     44 H12         0.3227   -0.7406    4.9305 H         1 <0>         0.4176
     45 H13         2.0851    1.3906   -1.7925 H         1 <0>         0.1355
     46 H14         2.2288    2.4288   -4.0171 H         1 <0>         0.1365
     47 H15        -0.8275   -0.1949   -5.4483 H         1 <0>         0.1318
     48 H16        -0.9698   -1.2470   -3.2300 H         1 <0>         0.1282
     49 H17         0.0869    1.7940   -8.0398 H         1 <0>         0.1016
     50 H18         0.1246    0.1899   -7.2692 H         1 <0>         0.0569
     51 H19        -1.1156    1.3758   -6.7959 H         1 <0>         0.0571
@<TRIPOS>BOND
     1    1    2 1
     2    1   34 1
     3    1   35 1
     4    1   36 1
     5    2    6 2
     6    2    3 1
     7    3    4 2
     8    3   26 1
     9    4    5 1
    10    5   10 1
    11    5    6 1
    12    6    7 1
    13    7    8 2
    14    8    9 1
    15    8   25 1
    16    9   10 1
    17    9   37 1
    18    9   38 1
    19   10   11 1
    20   10   12 1
    21   12   13 2
    22   12   14 am
    23   14   15 1
    24   14   39 1
    25   15   20 ar
    26   15   16 ar
    27   16   17 ar
    28   16   40 1
    29   17   18 ar
    30   17   41 1
    31   18   19 ar
    32   18   42 1
    33   19   20 ar
    34   19   43 1
    35   20   21 1
    36   21   22 1
    37   21   23 1
    38   21   24 1
    39   25   44 1
    40   26   31 ar
    41   26   27 ar
    42   27   28 ar
    43   27   45 1
    44   28   29 ar
    45   28   46 1
    46   29   30 ar
    47   29   32 1
    48   30   31 ar
    49   30   47 1
    50   31   48 1
    51   32   33 1
    52   33   49 1
    53   33   50 1
    54   33   51 1
@<TRIPOS>MOLECULE
ZINC00515533
   32    34     0     0     0
SMALL
USER_CHARGES
3-(1-naphthyliminomethyl)phenol
@<TRIPOS>ATOM
      1 C1          8.5179    2.2739   -0.4378 C.ar      1 <0>        -0.1104
      2 C2          7.3830    1.4709   -0.3510 C.ar      1 <0>        -0.1201
      3 C3          6.1415    2.0228   -0.2417 C.ar      1 <0>        -0.0911
      4 C4          6.0034    3.4157   -0.2158 C.ar      1 <0>        -0.0411
      5 C5          7.1553    4.2353   -0.3035 C.ar      1 <0>        -0.0410
      6 C6          8.4198    3.6317   -0.4157 C.ar      1 <0>        -0.1100
      7 C7          7.0123    5.6326   -0.2782 C.ar      1 <0>        -0.1131
      8 C8          5.7810    6.2029   -0.1700 C.ar      1 <0>        -0.1009
      9 C9          4.6249    5.4392   -0.0867 C.ar      1 <0>        -0.1504
     10 C10         4.6924    4.0513   -0.1003 C.ar      1 <0>         0.0978
     11 N1          3.5585    3.2980   -0.0133 N.2       1 <0>        -0.4736
     12 C11         2.6673    3.5644    0.9008 C.2       1 <0>         0.2081
     13 C12         1.3914    2.8304    0.9207 C.ar      1 <0>        -0.0664
     14 C13         1.1319    1.8468   -0.0392 C.ar      1 <0>        -0.0772
     15 C14        -0.0646    1.1615   -0.0162 C.ar      1 <0>        -0.1118
     16 C15        -1.0122    1.4469    0.9502 C.ar      1 <0>        -0.1232
     17 C16        -0.7624    2.4179    1.9109 C.ar      1 <0>         0.0984
     18 C17         0.4345    3.1131    1.8991 C.ar      1 <0>        -0.1113
     19 O1         -1.6960    2.6894    2.8606 O.3       1 <0>        -0.4972
     20 H1          9.4906    1.8124   -0.5237 H         1 <0>         0.1252
     21 H2          7.4883    0.3962   -0.3709 H         1 <0>         0.1251
     22 H3          5.2693    1.3892   -0.1759 H         1 <0>         0.1301
     23 H4          9.3086    4.2415   -0.4835 H         1 <0>         0.1299
     24 H5          7.8883    6.2608   -0.3449 H         1 <0>         0.1284
     25 H6          5.7010    7.2798   -0.1527 H         1 <0>         0.1257
     26 H7          3.6651    5.9278   -0.0065 H         1 <0>         0.1245
     27 H8          2.8653    4.3234    1.6431 H         1 <0>         0.1134
     28 H9          1.8679    1.6239   -0.7974 H         1 <0>         0.1386
     29 H10        -0.2642    0.4024   -0.7581 H         1 <0>         0.1328
     30 H11        -1.9489    0.9093    0.9600 H         1 <0>         0.1323
     31 H12         0.6280    3.8715    2.6432 H         1 <0>         0.1357
     32 H13        -2.3258    3.3781    2.6074 H         1 <0>         0.3926
@<TRIPOS>BOND
     1    1    6 ar
     2    1    2 ar
     3    1   20 1
     4    2    3 ar
     5    2   21 1
     6    3    4 ar
     7    3   22 1
     8    4   10 ar
     9    4    5 ar
    10    5    6 ar
    11    5    7 ar
    12    6   23 1
    13    7    8 ar
    14    7   24 1
    15    8    9 ar
    16    8   25 1
    17    9   10 ar
    18    9   26 1
    19   10   11 1
    20   11   12 2
    21   12   13 1
    22   12   27 1
    23   13   18 ar
    24   13   14 ar
    25   14   15 ar
    26   14   28 1
    27   15   16 ar
    28   15   29 1
    29   16   17 ar
    30   16   30 1
    31   17   18 ar
    32   17   19 1
    33   18   31 1
    34   19   32 1
@<TRIPOS>MOLECULE
ZINC35082540
   34    35     0     0     0
SMALL
USER_CHARGES

@<TRIPOS>ATOM
      1 C1         -0.0187    1.5258    0.0104 C.3       1 <0>        -0.1473
      2 C2          0.0021   -0.0041    0.0020 C.3       1 <0>        -0.0843
      3 C3          0.7074   -0.4901   -1.2379 C.ar      1 <0>        -0.0940
      4 C4         -0.0143   -0.7177   -2.3962 C.ar      1 <0>        -0.1017
      5 C5          0.6250   -1.1626   -3.5348 C.ar      1 <0>        -0.1073
      6 C6          2.0037   -1.3832   -3.5164 C.ar      1 <0>         0.1110
      7 C7          2.7258   -1.1515   -2.3440 C.ar      1 <0>        -0.1492
      8 C8          2.0747   -0.7012   -1.2143 C.ar      1 <0>        -0.0961
      9 N1          2.6446   -1.8252   -4.6429 N.2       1 <0>        -0.5113
     10 C9          3.7770   -1.2719   -5.0144 C.2       1 <0>         0.4500
     11 N2          4.5499   -1.5826   -6.1135 N.pl3     1 <0>        -0.7238
     12 C10         5.3823   -0.5046   -6.6404 C.3       1 <0>         0.1635
     13 C11         5.9978    0.2942   -5.4591 C.3       1 <0>        -0.0906
     14 S1          4.6608    0.0589   -4.2148 S.3       1 <0>        -0.1935
     15 C12         6.5039   -1.0968   -7.4961 C.3       1 <0>        -0.1501
     16 C13         4.5260    0.4296   -7.4977 C.3       1 <0>        -0.1643
     17 H1          1.0039    1.9031    0.0027 H         1 <0>         0.0555
     18 H2         -0.5459    1.8868   -0.8726 H         1 <0>         0.0554
     19 H3         -0.5289    1.8773    0.9072 H         1 <0>         0.0576
     20 H4          0.5293   -0.3651    0.8851 H         1 <0>         0.0710
     21 H5         -1.0205   -0.3814    0.0098 H         1 <0>         0.0714
     22 H6         -1.0806   -0.5470   -2.4089 H         1 <0>         0.1254
     23 H7          0.0604   -1.3402   -4.4381 H         1 <0>         0.1258
     24 H8          3.7923   -1.3204   -2.3228 H         1 <0>         0.1267
     25 H9          2.6327   -0.5174   -0.3080 H         1 <0>         0.1225
     26 H10         6.9379   -0.1464   -5.1272 H         1 <0>         0.1100
     27 H11         6.1220    1.3472   -5.7121 H         1 <0>         0.1228
     28 H12         6.0717   -1.6374   -8.3381 H         1 <0>         0.0701
     29 H13         7.1400   -0.2935   -7.8680 H         1 <0>         0.0827
     30 H14         7.0991   -1.7814   -6.8918 H         1 <0>         0.0694
     31 H15         3.7123    0.8324   -6.8945 H         1 <0>         0.0650
     32 H16         5.1422    1.2482   -7.8696 H         1 <0>         0.0758
     33 H17         4.1134   -0.1262   -8.3397 H         1 <0>         0.0688
     34 H18         4.5415   -2.4663   -6.5132 H         1 <0>         0.4130
@<TRIPOS>BOND
     1    1    2 1
     2    1   17 1
     3    1   18 1
     4    1   19 1
     5    2    3 1
     6    2   20 1
     7    2   21 1
     8    3    8 ar
     9    3    4 ar
    10    4    5 ar
    11    4   22 1
    12    5    6 ar
    13    5   23 1
    14    6    7 ar
    15    6    9 1
    16    7    8 ar
    17    7   24 1
    18    8   25 1
    19    9   10 2
    20   10   14 1
    21   10   11 1
    22   11   12 1
    23   11   34 1
    24   12   13 1
    25   12   15 1
    26   12   16 1
    27   13   14 1
    28   13   26 1
    29   13   27 1
    30   15   28 1
    31   15   29 1
    32   15   30 1
    33   16   31 1
    34   16   32 1
    35   16   33 1
@<TRIPOS>MOLECULE
ZINC41715773
   43    45     0     0     0
SMALL
USER_CHARGES

@<TRIPOS>ATOM
      1 C1         -0.0094    1.3020   -0.3903 C.3       1 <0>        -0.1474
      2 C2         -0.0567   -0.2270   -0.3625 C.3       1 <0>        -0.0516
      3 C3         -1.5120   -0.6907   -0.2260 C.3       1 <0>        -0.0401
      4 C4         -1.9932   -0.3475    1.1625 C.2       1 <0>         0.0327
      5 C5         -1.1728   -0.0376    2.1923 C.2       1 <0>        -0.2023
      6 C6         -1.9766    0.2221    3.3118 C.2       1 <0>        -0.1871
      7 C7         -3.2618    0.0603    2.9288 C.2       1 <0>        -0.0153
      8 N1         -3.2746   -0.2902    1.6092 N.pl3     1 <0>        -0.4333
      9 C8         -4.4714   -0.5590    0.8081 C.3       1 <0>         0.1094
     10 C9         -4.8786    0.7106    0.0577 C.3       1 <0>        -0.1078
     11 C10        -5.3818    1.7751    1.0545 C.3       1 <0>        -0.1159
     12 C11        -6.5458    2.4737    0.3087 C.3       1 <0>        -0.1262
     13 C12        -7.2258    1.3000   -0.4391 C.3       1 <0>        -0.1253
     14 C13        -6.0511    0.4085   -0.8919 C.3       1 <0>        -0.1189
     15 C14         0.3312    0.0045    2.0987 C.3       1 <0>         0.1791
     16 H1          0.6670    1.0402    2.0474 H         1 <0>         0.0599
     17 C15         0.7577   -0.7410    0.8278 C.3       1 <0>        -0.1014
     18 O1          0.9026   -0.6305    3.2442 O.3       1 <0>        -0.5635
     19 C16         0.5343   -0.7791   -1.6612 C.3       1 <0>        -0.1423
     20 H2          1.0249    1.6318   -0.4882 H         1 <0>         0.0575
     21 H3         -0.5892    1.6681   -1.2377 H         1 <0>         0.0535
     22 H4         -0.4302    1.6955    0.5350 H         1 <0>         0.0635
     23 H5         -2.1304   -0.1814   -0.9650 H         1 <0>         0.0713
     24 H6         -1.5697   -1.7684   -0.3785 H         1 <0>         0.0749
     25 H7         -1.6320    0.4994    4.2971 H         1 <0>         0.1326
     26 H8         -4.1303    0.1870    3.5582 H         1 <0>         0.1585
     27 H9         -4.2583   -1.3521    0.0914 H         1 <0>         0.0860
     28 H10        -5.2848   -0.8704    1.4635 H         1 <0>         0.0907
     29 H11        -4.0308    1.0982   -0.5073 H         1 <0>         0.0781
     30 H12        -5.7430    1.3022    1.9676 H         1 <0>         0.0653
     31 H13        -4.5905    2.4897    1.2811 H         1 <0>         0.0658
     32 H14        -7.2366    2.9335    1.0154 H         1 <0>         0.0674
     33 H15        -6.1647    3.2121   -0.3967 H         1 <0>         0.0671
     34 H16        -7.8849    0.7503    0.2329 H         1 <0>         0.0661
     35 H17        -7.7804    1.6679   -1.3023 H         1 <0>         0.0670
     36 H18        -5.7726    0.6503   -1.9176 H         1 <0>         0.0686
     37 H19        -6.3300   -0.6426   -0.8181 H         1 <0>         0.0669
     38 H20         0.5800   -1.8088    0.9557 H         1 <0>         0.0719
     39 H21         1.8182   -0.5686    0.6441 H         1 <0>         0.0713
     40 H22         0.6594   -0.2186    4.0846 H         1 <0>         0.3770
     41 H23         1.5687   -0.4493   -1.7587 H         1 <0>         0.0608
     42 H24         0.5007   -1.8684   -1.6415 H         1 <0>         0.0575
     43 H25        -0.0452   -0.4129   -2.5087 H         1 <0>         0.0579
@<TRIPOS>BOND
     1    1    2 1
     2    1   20 1
     3    1   21 1
     4    1   22 1
     5    2   17 1
     6    2    3 1
     7    2   19 1
     8    3    4 1
     9    3   23 1
    10    3   24 1
    11    4    8 1
    12    4    5 2
    13    5    6 1
    14    5   15 1
    15    6    7 2
    16    6   25 1
    17    7    8 1
    18    7   26 1
    19    8    9 1
    20    9   10 1
    21    9   27 1
    22    9   28 1
    23   10   14 1
    24   10   11 1
    25   10   29 1
    26   11   12 1
    27   11   30 1
    28   11   31 1
    29   12   13 1
    30   12   32 1
    31   12   33 1
    32   13   14 1
    33   13   34 1
    34   13   35 1
    35   14   36 1
    36   14   37 1
    37   15   16 1
    38   15   17 1
    39   15   18 1
    40   17   38 1
    41   17   39 1
    42   18   40 1
    43   19   41 1
    44   19   42 1
    45   19   43 1
@<TRIPOS>MOLECULE
ZINC53046256
   35    37     0     0     0
SMALL
USER_CHARGES

@<TRIPOS>ATOM
      1 C1          2.0588    0.5990    0.5186 C.3       1 <0>        -0.1082
      2 C2          0.9996   -0.4377    0.2459 C.ar      1 <0>        -0.0793
      3 C3          0.9955   -1.1238   -0.9511 C.ar      1 <0>        -0.1093
      4 C4          0.0238   -2.0758   -1.2030 C.ar      1 <0>        -0.1261
      5 C5         -0.9497   -2.3472   -0.2576 C.ar      1 <0>        -0.1078
      6 C6         -0.9575   -1.6688    0.9432 C.ar      1 <0>        -0.1387
      7 C7          0.0235   -0.7102    1.2063 C.ar      1 <0>         0.1117
      8 N1          0.0248   -0.0367    2.3985 N.2       1 <0>        -0.5095
      9 C8         -0.0546   -0.7018    3.5290 C.2       1 <0>         0.4526
     10 N2         -0.1667   -0.1894    4.8062 N.pl3     1 <0>        -0.7173
     11 C9         -0.7927   -1.0560    5.7907 C.3       1 <0>         0.1641
     12 C10        -2.3307   -0.9759    5.7005 C.3       1 <0>        -0.1320
     13 C11        -2.6562    0.2863    6.5392 C.3       1 <0>        -0.1234
     14 C12        -1.6470    0.2386    7.7056 C.3       1 <0>        -0.1264
     15 C13        -0.4572   -0.6120    7.2228 C.3       1 <0>        -0.1181
     16 C14        -0.3413   -2.5204    5.5783 C.3       1 <0>        -0.0834
     17 S1         -0.0498   -2.4737    3.7596 S.3       1 <0>        -0.1976
     18 H1          2.9181    0.1245    0.9925 H         1 <0>         0.0646
     19 H2          2.3689    1.0572   -0.4205 H         1 <0>         0.0642
     20 H3          1.6555    1.3649    1.1809 H         1 <0>         0.0738
     21 H4          1.7523   -0.9170   -1.6932 H         1 <0>         0.1252
     22 H5          0.0249   -2.6095   -2.1419 H         1 <0>         0.1230
     23 H6         -1.7053   -3.0916   -0.4608 H         1 <0>         0.1233
     24 H7         -1.7180   -1.8812    1.6800 H         1 <0>         0.1232
     25 H8         -2.6509   -0.8461    4.6667 H         1 <0>         0.0744
     26 H9         -2.7902   -1.8611    6.1403 H         1 <0>         0.0855
     27 H10        -2.5090    1.1877    5.9443 H         1 <0>         0.0675
     28 H11        -3.6777    0.2402    6.9167 H         1 <0>         0.0719
     29 H12        -1.3109    1.2462    7.9501 H         1 <0>         0.0686
     30 H13        -2.1070   -0.2243    8.5787 H         1 <0>         0.0714
     31 H14        -0.3355   -1.4837    7.8657 H         1 <0>         0.0881
     32 H15         0.4546   -0.0148    7.2251 H         1 <0>         0.0779
     33 H16         0.5743   -2.7393    6.1278 H         1 <0>         0.1092
     34 H17        -1.1342   -3.2233    5.8340 H         1 <0>         0.1242
     35 H18         0.1540    0.6975    5.0333 H         1 <0>         0.4129
@<TRIPOS>BOND
     1    1    2 1
     2    1   18 1
     3    1   19 1
     4    1   20 1
     5    2    7 ar
     6    2    3 ar
     7    3    4 ar
     8    3   21 1
     9    4    5 ar
    10    4   22 1
    11    5    6 ar
    12    5   23 1
    13    6    7 ar
    14    6   24 1
    15    7    8 1
    16    8    9 2
    17    9   17 1
    18    9   10 1
    19   10   11 1
    20   10   35 1
    21   11   15 1
    22   11   12 1
    23   11   16 1
    24   12   13 1
    25   12   25 1
    26   12   26 1
    27   13   14 1
    28   13   27 1
    29   13   28 1
    30   14   15 1
    31   14   29 1
    32   14   30 1
    33   15   31 1
    34   15   32 1
    35   16   17 1
    36   16   33 1
    37   16   34 1
@<TRIPOS>MOLECULE
ZINC61714302
   35    36     0     0     0
SMALL
USER_CHARGES

@<TRIPOS>ATOM
      1 C1         -0.0187    1.5258    0.0104 C.3       1 <0>        -0.1483
      2 C2          0.0021   -0.0041    0.0020 C.3       1 <0>        -0.0624
      3 C3          0.7421   -0.5109    1.2415 C.3       1 <0>        -0.1453
      4 C4         -1.4333   -0.5336    0.0129 C.3       1 <0>        -0.1451
      5 C5          0.7182   -0.4975   -1.2568 C.3       1 <0>        -0.0681
      6 H1          0.7340   -1.5873   -1.2646 H         1 <0>         0.0759
      7 C6         -0.0166    0.0140   -2.4991 C.3       1 <0>        -0.1180
      8 C7          0.5358   -0.6651   -3.7541 C.3       1 <0>        -0.0391
      9 C8          2.0491   -0.5012   -3.7715 C.2       1 <0>         0.1102
     10 C9          2.7220   -0.1844   -2.6368 C.2       1 <0>        -0.2441
     11 S1          4.4027   -0.1145   -3.1904 S.3       1 <0>         0.0711
     12 C10         4.1172   -0.4920   -4.8079 C.2       1 <0>         0.3202
     13 N1          2.8120   -0.6472   -4.8527 N.2       1 <0>        -0.5894
     14 N2          5.0348   -0.6097   -5.8401 N.pl3     1 <0>        -0.6891
     15 C11         4.5789   -0.9491   -7.1904 C.3       1 <0>         0.1037
     16 C12         2.1588    0.0387   -1.2736 C.3       1 <0>        -0.0224
     17 H2          1.0039    1.9031    0.0027 H         1 <0>         0.0581
     18 H3         -0.5459    1.8868   -0.8726 H         1 <0>         0.0583
     19 H4         -0.5289    1.8773    0.9072 H         1 <0>         0.0545
     20 H5          0.2319   -0.1594    2.1383 H         1 <0>         0.0553
     21 H6          0.7568   -1.6008    1.2356 H         1 <0>         0.0550
     22 H7          1.7647   -0.1336    1.2338 H         1 <0>         0.0569
     23 H8         -1.9605   -0.1726   -0.8702 H         1 <0>         0.0595
     24 H9         -1.4185   -1.6235    0.0069 H         1 <0>         0.0551
     25 H10        -1.9435   -0.1821    0.9097 H         1 <0>         0.0553
     26 H11        -1.0799   -0.2074   -2.4067 H         1 <0>         0.0782
     27 H12         0.1202    1.0922   -2.5816 H         1 <0>         0.0688
     28 H13         0.2830   -1.7252   -3.7376 H         1 <0>         0.0799
     29 H14         0.1073   -0.1984   -4.6411 H         1 <0>         0.0806
     30 H15         5.9788   -0.4674   -5.6685 H         1 <0>         0.4188
     31 H16         4.0775   -1.9168   -7.1721 H         1 <0>         0.0591
     32 H17         3.8838   -0.1864   -7.5416 H         1 <0>         0.0591
     33 H18         5.4360   -0.9966   -7.8621 H         1 <0>         0.0792
     34 H19         2.1569    1.1052   -1.0482 H         1 <0>         0.0820
     35 H20         2.7577   -0.4929   -0.5342 H         1 <0>         0.0765
@<TRIPOS>BOND
     1    1    2 1
     2    1   17 1
     3    1   18 1
     4    1   19 1
     5    2    3 1
     6    2    4 1
     7    2    5 1
     8    3   20 1
     9    3   21 1
    10    3   22 1
    11    4   23 1
    12    4   24 1
    13    4   25 1
    14    5    6 1
    15    5   16 1
    16    5    7 1
    17    7    8 1
    18    7   26 1
    19    7   27 1
    20    8    9 1
    21    8   28 1
    22    8   29 1
    23    9   13 1
    24    9   10 2
    25   10   11 1
    26   10   16 1
    27   11   12 1
    28   12   13 2
    29   12   14 1
    30   14   15 1
    31   14   30 1
    32   15   31 1
    33   15   32 1
    34   15   33 1
    35   16   34 1
    36   16   35 1
@<TRIPOS>MOLECULE
ZINC14456001
   49    52     0     0     0
SMALL
USER_CHARGES
(3aR,4S,9bS)-N-isopropyl-4-(3-methyl-2-thienyl)-3a,4,5,9b-tetrahydro-3H-cyclopenta[c]quinoline-6-carboxamide
@<TRIPOS>ATOM
      1 C1          1.7039    0.5284   -3.2649 C.3       1 <0>        -0.1017
      2 C2          0.2336    0.7606   -3.0294 C.2       1 <0>        -0.1059
      3 C3         -0.6890   -0.2240   -3.3296 C.2       1 <0>        -0.1544
      4 C4         -2.0045    0.0197   -3.1122 C.2       1 <0>        -0.2003
      5 S1         -1.9692    1.6799   -2.4567 S.3       1 <0>         0.0819
      6 C5         -0.2035    1.9367   -2.5166 C.2       1 <0>        -0.1771
      7 C6          0.5936    3.1490   -2.1091 C.3       1 <0>         0.1766
      8 H1          1.6012    3.0760   -2.5183 H         1 <0>         0.1132
      9 C7          0.6669    3.2219   -0.5820 C.3       1 <0>        -0.0841
     10 H2          1.2742    4.0552   -0.2285 H         1 <0>         0.1075
     11 C8          1.1639    1.8429   -0.0637 C.3       1 <0>        -0.0914
     12 C9         -0.0928    0.9952   -0.0496 C.2       1 <0>        -0.1716
     13 C10        -1.1592    1.7549   -0.0233 C.2       1 <0>        -0.1457
     14 C11        -0.7687    3.2150   -0.0137 C.3       1 <0>        -0.0162
     15 H3         -0.7689    3.6097    1.0024 H         1 <0>         0.0985
     16 C12        -1.7031    4.0141   -0.8739 C.ar      1 <0>        -0.1285
     17 C13        -2.9916    4.2316   -0.4070 C.ar      1 <0>        -0.0502
     18 C14        -3.9065    4.9531   -1.1512 C.ar      1 <0>        -0.1632
     19 C15        -3.5497    5.4711   -2.3772 C.ar      1 <0>        -0.0519
     20 C16        -2.2589    5.2645   -2.8635 C.ar      1 <0>        -0.1965
     21 C17        -1.3282    4.5308   -2.1020 C.ar      1 <0>         0.2047
     22 N1         -0.0558    4.3552   -2.6230 N.pl3     1 <0>        -0.6096
     23 C18        -1.8688    5.8134   -4.1751 C.2       1 <0>         0.5663
     24 O1         -0.7129    5.7398   -4.5456 O.2       1 <0>        -0.5350
     25 N2         -2.7932    6.3966   -4.9636 N.am      1 <0>        -0.7218
     26 C19        -2.4056    6.9420   -6.2668 C.3       1 <0>         0.1365
     27 C20        -3.6235    6.9657   -7.1925 C.3       1 <0>        -0.1622
     28 C21        -1.8743    8.3655   -6.0864 C.3       1 <0>        -0.1646
     29 H4          2.1506    0.0923   -2.3714 H         1 <0>         0.0707
     30 H5          1.8340   -0.1530   -4.1057 H         1 <0>         0.0642
     31 H6          2.1905    1.4778   -3.4881 H         1 <0>         0.0644
     32 H7         -0.3669   -1.1715   -3.7355 H         1 <0>         0.1269
     33 H8         -2.8537   -0.6236   -3.2894 H         1 <0>         0.1781
     34 H9          1.5749    1.9363    0.9415 H         1 <0>         0.0790
     35 H10         1.9046    1.4196   -0.7420 H         1 <0>         0.0733
     36 H11        -0.1068   -0.0846   -0.0641 H         1 <0>         0.1212
     37 H12        -2.1753    1.3892   -0.0078 H         1 <0>         0.1290
     38 H13        -3.2842    3.8310    0.5522 H         1 <0>         0.1271
     39 H14        -4.9045    5.1116   -0.7700 H         1 <0>         0.1279
     40 H15        -4.2655    6.0335   -2.9583 H         1 <0>         0.1244
     41 H16        -0.0752    4.3536   -3.6318 H         1 <0>         0.3882
     42 H17        -3.7153    6.4553   -4.6681 H         1 <0>         0.3995
     43 H18        -1.6279    6.3169   -6.7055 H         1 <0>         0.0893
     44 H19        -4.4012    7.5909   -6.7538 H         1 <0>         0.0615
     45 H20        -3.3351    7.3715   -8.1622 H         1 <0>         0.0747
     46 H21        -4.0020    5.9516   -7.3210 H         1 <0>         0.0619
     47 H22        -2.6520    8.9906   -5.6477 H         1 <0>         0.0566
     48 H23        -1.0066    8.3486   -5.4269 H         1 <0>         0.0619
     49 H24        -1.5859    8.7712   -7.0561 H         1 <0>         0.0667
@<TRIPOS>BOND
     1    1    2 1
     2    1   29 1
     3    1   30 1
     4    1   31 1
     5    2    6 2
     6    2    3 1
     7    3    4 2
     8    3   32 1
     9    4    5 1
    10    4   33 1
    11    5    6 1
    12    6    7 1
    13    7    8 1
    14    7   22 1
    15    7    9 1
    16    9   10 1
    17    9   14 1
    18    9   11 1
    19   11   12 1
    20   11   34 1
    21   11   35 1
    22   12   13 2
    23   12   36 1
    24   13   14 1
    25   13   37 1
    26   14   15 1
    27   14   16 1
    28   16   21 ar
    29   16   17 ar
    30   17   18 ar
    31   17   38 1
    32   18   19 ar
    33   18   39 1
    34   19   20 ar
    35   19   40 1
    36   20   21 ar
    37   20   23 1
    38   21   22 1
    39   22   41 1
    40   23   24 2
    41   23   25 am
    42   25   26 1
    43   25   42 1
    44   26   27 1
    45   26   28 1
    46   26   43 1
    47   27   44 1
    48   27   45 1
    49   27   46 1
    50   28   47 1
    51   28   48 1
    52   28   49 1
@<TRIPOS>MOLECULE
ZINC20750173
   52    55     0     0     0
SMALL
USER_CHARGES
(3aR,4S,9bR)-N-tert-butyl-4-(2,6-dichlorophenyl)-3a,4,5,9b-tetrahydro-3H-cyclopenta[c]quinoline-6-carboxamide
@<TRIPOS>ATOM
      1 C1          6.2715    3.6657    1.2797 C.3       1 <0>        -0.1652
      2 C2          6.2733    2.7468    0.0563 C.3       1 <0>         0.1732
      3 C3          7.5203    1.8608    0.0859 C.3       1 <0>        -0.1578
      4 C4          6.2797    3.5939   -1.2178 C.3       1 <0>        -0.1650
      5 N1          5.0750    1.9043    0.0766 N.am      1 <0>        -0.7282
      6 C5          3.8524    2.4710    0.0563 C.2       1 <0>         0.5840
      7 O1          3.7439    3.6817    0.0212 O.2       1 <0>        -0.5481
      8 C6          2.6464    1.6231    0.0767 C.ar      1 <0>        -0.2882
      9 C7          2.7759    0.2362    0.1170 C.ar      1 <0>        -0.0289
     10 C8          1.6536   -0.5622    0.1360 C.ar      1 <0>        -0.2063
     11 C9          0.3952    0.0171    0.1232 C.ar      1 <0>        -0.0286
     12 C10         0.2482    1.3863    0.0913 C.ar      1 <0>        -0.1813
     13 C11         1.3693    2.2209    0.0553 C.ar      1 <0>         0.3598
     14 N2          1.3094    3.6021   -0.0228 N.pl3     1 <0>        -0.7399
     15 C12        -0.0258    4.2159    0.0549 C.3       1 <0>         0.1752
     16 H1          0.0141    5.2358   -0.3553 H         1 <0>         0.1025
     17 C13        -0.9695    3.3315   -0.7327 C.3       1 <0>        -0.0842
     18 H2         -0.5556    3.3691   -1.7512 H         1 <0>         0.1042
     19 C14        -1.0854    2.0263    0.1152 C.3       1 <0>        -0.0098
     20 H3         -1.2666    2.0171    1.2001 H         1 <0>         0.0929
     21 C15        -2.2968    1.3732   -0.4385 C.2       1 <0>        -0.1727
     22 C16        -3.1048    2.3150   -0.9132 C.2       1 <0>        -0.1657
     23 C17        -2.4592    3.6922   -0.7396 C.3       1 <0>        -0.1304
     24 C18        -0.4729    4.2927    1.4919 C.ar      1 <0>        -0.0728
     25 C19        -1.5919    5.0324    1.8298 C.ar      1 <0>        -0.0304
     26 C20        -2.0056    5.0975    3.1486 C.ar      1 <0>        -0.1033
     27 C21        -1.2938    4.4335    4.1299 C.ar      1 <0>        -0.1000
     28 C22        -0.1723    3.6989    3.7937 C.ar      1 <0>        -0.1063
     29 C23         0.2387    3.6281    2.4745 C.ar      1 <0>        -0.0479
     30 Cl1         1.6470    2.7049    2.0523 Cl        1 <0>         0.0282
     31 Cl2        -2.4816    5.8726    0.5984 Cl        1 <0>        -0.0352
     32 H4          5.3750    4.3027    1.2585 H         1 <0>         0.0797
     33 H5          7.1713    4.2983    1.2644 H         1 <0>         0.0621
     34 H6          6.2670    3.0567    2.1957 H         1 <0>         0.0523
     35 H7          7.5216    1.2002   -0.7936 H         1 <0>         0.0626
     36 H8          7.5157    1.2518    1.0019 H         1 <0>         0.0622
     37 H9          8.4200    2.4935    0.0707 H         1 <0>         0.0741
     38 H10         6.2810    2.9333   -2.0973 H         1 <0>         0.0532
     39 H11         7.1795    4.2265   -1.2330 H         1 <0>         0.0622
     40 H12         5.3832    4.2310   -1.2390 H         1 <0>         0.0791
     41 H13         5.1731    0.8091    0.1084 H         1 <0>         0.4183
     42 H14         3.7578   -0.2135    0.1329 H         1 <0>         0.1159
     43 H15         1.7543   -1.6372    0.1605 H         1 <0>         0.1214
     44 H16        -0.4818   -0.6129    0.1388 H         1 <0>         0.1207
     45 H17         2.2006    4.2366   -0.1376 H         1 <0>         0.4518
     46 H18        -2.5886    0.3146   -0.5029 H         1 <0>         0.1295
     47 H19        -4.0765    2.0381   -1.3480 H         1 <0>         0.1271
     48 H20        -2.7227    4.1799    0.2105 H         1 <0>         0.1186
     49 H21        -2.6665    4.3785   -1.5739 H         1 <0>         0.0683
     50 H22        -2.8818    5.6713    3.4119 H         1 <0>         0.1406
     51 H23        -1.6143    4.4885    5.1598 H         1 <0>         0.1407
     52 H24         0.3830    3.1797    4.5608 H         1 <0>         0.1362
@<TRIPOS>BOND
     1    1    2 1
     2    1   32 1
     3    1   33 1
     4    1   34 1
     5    2    3 1
     6    2    4 1
     7    2    5 1
     8    3   35 1
     9    3   36 1
    10    3   37 1
    11    4   38 1
    12    4   39 1
    13    4   40 1
    14    5    6 am
    15    5   41 1
    16    6    7 2
    17    6    8 1
    18    8   13 ar
    19    8    9 ar
    20    9   10 ar
    21    9   42 1
    22   10   11 ar
    23   10   43 1
    24   11   12 ar
    25   11   44 1
    26   12   19 1
    27   12   13 ar
    28   13   14 1
    29   14   15 1
    30   14   45 1
    31   15   16 1
    32   15   17 1
    33   15   24 1
    34   17   18 1
    35   17   23 1
    36   17   19 1
    37   19   20 1
    38   19   21 1
    39   21   22 2
    40   21   46 1
    41   22   23 1
    42   22   47 1
    43   23   48 1
    44   23   49 1
    45   24   29 ar
    46   24   25 ar
    47   25   26 ar
    48   25   31 1
    49   26   27 ar
    50   26   50 1
    51   27   28 ar
    52   27   51 1
    53   28   29 ar
    54   28   52 1
    55   29   30 1
@<TRIPOS>MOLECULE
ZINC19927812
   42    45     0     0     0
SMALL
USER_CHARGES

@<TRIPOS>ATOM
      1 C1         -0.0167    1.3782    0.0096 C.ar      1 <0>        -0.1262
      2 C2          1.1700    2.0882    0.0021 C.ar      1 <0>        -0.1022
      3 C3          2.3773    1.4175   -0.0134 C.ar      1 <0>        -0.1430
      4 C4          2.3989    0.0301   -0.0210 C.ar      1 <0>         0.1132
      5 C5          1.2072   -0.6797   -0.0130 C.ar      1 <0>        -0.1013
      6 C6          0.0021   -0.0041    0.0020 C.ar      1 <0>        -0.0876
      7 C7          1.2269   -2.1866   -0.0218 C.3       1 <0>         0.1315
      8 H1          2.0662   -2.5398   -0.6208 H         1 <0>         0.1077
      9 C8          1.3587   -2.7100    1.4118 C.3       1 <0>        -0.1606
     10 C9          1.0640   -4.1841    1.4364 C.2       1 <0>         0.2825
     11 N1          0.4778   -4.7975    0.4714 N.2       1 <0>        -0.5407
     12 C10         0.0388   -4.1520   -0.7595 C.3       1 <0>         0.2892
     13 H2         -0.9458   -4.5314   -1.0326 H         1 <0>         0.1262
     14 N2         -0.0350   -2.6968   -0.5847 N.3       1 <0>        -0.6887
     15 C11         1.0161   -4.4688   -1.8621 C.ar      1 <0>        -0.0868
     16 C12         1.2210   -3.5621   -2.8854 C.ar      1 <0>        -0.0744
     17 C13         2.1172   -3.8521   -3.8968 C.ar      1 <0>        -0.1164
     18 C14         2.8093   -5.0500   -3.8851 C.ar      1 <0>        -0.0281
     19 C15         2.6038   -5.9570   -2.8607 C.ar      1 <0>        -0.1170
     20 C16         1.7116   -5.6634   -1.8468 C.ar      1 <0>        -0.0841
     21 Cl1         3.9347   -5.4152   -5.1555 Cl        1 <0>        -0.0707
     22 C17         1.4631   -4.9567    2.6153 C.2       1 <0>        -0.1815
     23 C18         1.3071   -6.3111    2.8663 C.2       1 <0>        -0.0892
     24 C19         1.7888   -6.7534    4.0766 C.2       1 <0>        -0.1791
     25 C20         2.3670   -5.8643    4.9198 C.2       1 <0>        -0.2345
     26 S1          2.2830   -4.4017    4.0977 S.3       1 <0>         0.2005
     27 O1          3.5855   -0.6321   -0.0368 O.3       1 <0>        -0.4946
     28 H3         -0.9596    1.9045    0.0259 H         1 <0>         0.1261
     29 H4          1.1527    3.1681    0.0080 H         1 <0>         0.1272
     30 H5          3.3038    1.9724   -0.0200 H         1 <0>         0.1297
     31 H6         -0.9260   -0.5563    0.0079 H         1 <0>         0.1271
     32 H7          2.3734   -2.5363    1.7701 H         1 <0>         0.0941
     33 H8          0.6516   -2.1873    2.0559 H         1 <0>         0.0968
     34 H9         -0.8193   -2.4427   -0.0029 H         1 <0>         0.3501
     35 H10         0.6804   -2.6272   -2.8946 H         1 <0>         0.1439
     36 H11         2.2769   -3.1439   -4.6964 H         1 <0>         0.1335
     37 H12         3.1436   -6.8924   -2.8512 H         1 <0>         0.1329
     38 H13         1.5546   -6.3693   -1.0446 H         1 <0>         0.1377
     39 H14         0.8372   -6.9765    2.1571 H         1 <0>         0.1470
     40 H15         1.7069   -7.7947    4.3510 H         1 <0>         0.1347
     41 H16         2.7893   -6.0535    5.8957 H         1 <0>         0.1866
     42 H17         3.9380   -0.8285    0.8420 H         1 <0>         0.3886
@<TRIPOS>BOND
     1    1    6 ar
     2    1    2 ar
     3    1   28 1
     4    2    3 ar
     5    2   29 1
     6    3    4 ar
     7    3   30 1
     8    4    5 ar
     9    4   27 1
    10    5    6 ar
    11    5    7 1
    12    6   31 1
    13    7    8 1
    14    7   14 1
    15    7    9 1
    16    9   10 1
    17    9   32 1
    18    9   33 1
    19   10   11 2
    20   10   22 1
    21   11   12 1
    22   12   13 1
    23   12   14 1
    24   12   15 1
    25   14   34 1
    26   15   20 ar
    27   15   16 ar
    28   16   17 ar
    29   16   35 1
    30   17   18 ar
    31   17   36 1
    32   18   19 ar
    33   18   21 1
    34   19   20 ar
    35   19   37 1
    36   20   38 1
    37   22   26 1
    38   22   23 2
    39   23   24 1
    40   23   39 1
    41   24   25 2
    42   24   40 1
    43   25   26 1
    44   25   41 1
    45   27   42 1
@<TRIPOS>MOLECULE
ZINC43666527
   24    25     0     0     0
SMALL
USER_CHARGES

@<TRIPOS>ATOM
      1 C1         -0.0167    1.3789    0.0096 C.ar      1 <0>        -0.0501
      2 C2          1.1705    2.0864    0.0021 C.ar      1 <0>        -0.1457
      3 C3          2.3787    1.4107   -0.0130 C.ar      1 <0>         0.1309
      4 C4          2.3967    0.0260   -0.0206 C.ar      1 <0>        -0.1482
      5 C5          1.2091   -0.6801   -0.0130 C.ar      1 <0>        -0.0315
      6 C6          0.0021   -0.0041    0.0020 C.ar      1 <0>        -0.1044
      7 Br1        -1.6228   -0.9713    0.0129 Br        1 <0>        -0.0297
      8 C7          3.7113   -0.7106   -0.0375 C.3       1 <0>         0.1804
      9 N1          4.2098   -0.8515    1.3328 N.pl3     1 <0>        -0.3954
     10 C8          5.0110    0.0285    1.9871 C.2       1 <0>         0.4118
     11 C9          5.2401   -0.4747    3.2318 C.2       1 <0>        -0.3231
     12 C10         4.5598   -1.6914    3.3339 C.2       1 <0>         0.1142
     13 N2          3.9399   -1.9150    2.2036 N.2       1 <0>        -0.2921
     14 I1          6.4058    0.4162    4.7273 I         1 <0>        -0.0163
     15 N3          5.5074    1.2259    1.4785 N.pl3     1 <0>        -0.8477
     16 F1          3.5395    2.1017   -0.0209 F         1 <0>        -0.1298
     17 H1         -0.9592    1.9059    0.0259 H         1 <0>         0.1480
     18 H2          1.1557    3.1663    0.0076 H         1 <0>         0.1500
     19 H3          1.2230   -1.7600   -0.0189 H         1 <0>         0.1488
     20 H4          3.5687   -1.6984   -0.4757 H         1 <0>         0.1188
     21 H5          4.4339   -0.1506   -0.6312 H         1 <0>         0.1017
     22 H6          4.5450   -2.3358    4.2004 H         1 <0>         0.1873
     23 H7          5.2853    1.4979    0.5743 H         1 <0>         0.4047
     24 H8          6.0752    1.7881    2.0284 H         1 <0>         0.4173
@<TRIPOS>BOND
     1    1    6 ar
     2    1    2 ar
     3    1   17 1
     4    2    3 ar
     5    2   18 1
     6    3    4 ar
     7    3   16 1
     8    4    5 ar
     9    4    8 1
    10    5    6 ar
    11    5   19 1
    12    6    7 1
    13    8    9 1
    14    8   20 1
    15    8   21 1
    16    9   13 1
    17    9   10 1
    18   10   11 2
    19   10   15 1
    20   11   12 1
    21   11   14 1
    22   12   13 2
    23   12   22 1
    24   15   23 1
    25   15   24 1
@<TRIPOS>MOLECULE
ZINC15053262
   36    38     0     0     0
SMALL
USER_CHARGES

@<TRIPOS>ATOM
      1 C1          0.1239    0.9948    0.0901 C.3       1 <0>        -0.1152
      2 C2          0.0261   -0.5062    0.1835 C.ar      1 <0>        -0.0583
      3 C3          0.0103   -1.2709   -0.9668 C.ar      1 <0>        -0.1133
      4 C4         -0.0798   -2.6479   -0.8820 C.ar      1 <0>        -0.0989
      5 C5         -0.1539   -3.2641    0.3539 C.ar      1 <0>        -0.1165
      6 C6         -0.1386   -2.5051    1.5075 C.ar      1 <0>        -0.0897
      7 C7         -0.0424   -1.1221    1.4258 C.ar      1 <0>         0.1163
      8 N1         -0.0203   -0.3497    2.5944 N.am      1 <0>        -0.5010
      9 C8         -1.1557    0.0811    3.1176 C.2       1 <0>         0.5597
     10 O1         -2.2296   -0.1776    2.6066 O.2       1 <0>        -0.4697
     11 C9         -1.0628    0.8887    4.3482 C.2       1 <0>        -0.1935
     12 C10        -2.0540    1.4502    5.0857 C.2       1 <0>         0.0642
     13 C11        -1.7456    2.0657    6.3824 C.ar      1 <0>        -0.1105
     14 C12        -0.5459    1.7645    7.0375 C.ar      1 <0>        -0.0541
     15 C13        -0.2637    2.3465    8.2548 C.ar      1 <0>        -0.1011
     16 C14        -1.1629    3.2287    8.8335 C.ar      1 <0>        -0.0513
     17 C15        -2.3510    3.5345    8.1977 C.ar      1 <0>        -0.1408
     18 C16        -2.6497    2.9650    6.9706 C.ar      1 <0>         0.1621
     19 O2         -3.8141    3.2698    6.3428 O.3       1 <0>        -0.4884
     20 Br1         1.3572    1.9392    9.1396 Br        1 <0>        -0.0327
     21 S1          0.7046    0.9292    4.6083 S.3       1 <0>        -0.0614
     22 C17         1.1880   -0.0486    3.1949 C.2       1 <0>         0.4135
     23 N2          2.3886   -0.3931    2.8192 N.2       1 <0>        -0.6326
     24 H1          1.1727    1.2914    0.0918 H         1 <0>         0.0758
     25 H2         -0.3479    1.3329   -0.8325 H         1 <0>         0.0752
     26 H3         -0.3826    1.4456    0.9435 H         1 <0>         0.0577
     27 H4          0.0681   -0.7925   -1.9334 H         1 <0>         0.1313
     28 H5         -0.0927   -3.2436   -1.7828 H         1 <0>         0.1301
     29 H6         -0.2243   -4.3400    0.4170 H         1 <0>         0.1312
     30 H7         -0.1972   -2.9868    2.4723 H         1 <0>         0.1237
     31 H8         -3.0697    1.4442    4.7187 H         1 <0>         0.1666
     32 H9          0.1570    1.0771    6.5904 H         1 <0>         0.1516
     33 H10        -0.9335    3.6797    9.7876 H         1 <0>         0.1451
     34 H11        -3.0461    4.2223    8.6561 H         1 <0>         0.1482
     35 H12        -4.5500    2.6868    6.5743 H         1 <0>         0.4020
     36 H13         3.1586   -0.1114    3.3376 H         1 <0>         0.3748
@<TRIPOS>BOND
     1    1    2 1
     2    1   24 1
     3    1   25 1
     4    1   26 1
     5    2    7 ar
     6    2    3 ar
     7    3    4 ar
     8    3   27 1
     9    4    5 ar
    10    4   28 1
    11    5    6 ar
    12    5   29 1
    13    6    7 ar
    14    6   30 1
    15    7    8 1
    16    8   22 1
    17    8    9 am
    18    9   10 2
    19    9   11 1
    20   11   12 2
    21   11   21 1
    22   12   13 1
    23   12   31 1
    24   13   18 ar
    25   13   14 ar
    26   14   15 ar
    27   14   32 1
    28   15   16 ar
    29   15   20 1
    30   16   17 ar
    31   16   33 1
    32   17   18 ar
    33   17   34 1
    34   18   19 1
    35   19   35 1
    36   21   22 1
    37   22   23 2
    38   23   36 1
@<TRIPOS>MOLECULE
ZINC04577088
   35    37     0     0     0
SMALL
USER_CHARGES
N-(2-bromo-4-nitro-phenyl)-2-(1,3-dioxoisoindolin-2-yl)-acetamide
@<TRIPOS>ATOM
      1 C1          2.7720   -6.9615   -0.1378 C.ar      1 <0>        -0.0927
      2 C2          2.7240   -6.8663    1.2404 C.ar      1 <0>        -0.0923
      3 C3          2.8963   -5.6418    1.8665 C.ar      1 <0>        -0.0419
      4 C4          3.1182   -4.5058    1.1046 C.ar      1 <0>        -0.1380
      5 C5          3.1671   -4.6029   -0.3006 C.ar      1 <0>        -0.1386
      6 C6          2.9931   -5.8338   -0.9128 C.ar      1 <0>        -0.0417
      7 C7          3.4152   -3.2312   -0.7924 C.2       1 <0>         0.5821
      8 O1          3.5227   -2.9044   -1.9571 O.2       1 <0>        -0.4568
      9 N1          3.5020   -2.4055    0.2661 N.am      1 <0>        -0.5658
     10 C8          3.3432   -3.0793    1.4195 C.2       1 <0>         0.5813
     11 O2          3.3765   -2.5959    2.5332 O.2       1 <0>        -0.4555
     12 C9          3.7440   -0.9635    0.1749 C.3       1 <0>         0.0963
     13 C10         2.4266   -0.2382    0.0783 C.2       1 <0>         0.5068
     14 O3          1.3877   -0.8642    0.0851 O.2       1 <0>        -0.4926
     15 N2          2.4027    1.1061   -0.0155 N.am      1 <0>        -0.6674
     16 C11         1.1795    1.7863   -0.0103 C.ar      1 <0>         0.2296
     17 C12         0.0635    1.2158   -0.6081 C.ar      1 <0>        -0.1161
     18 C13        -1.1406    1.8923   -0.6068 C.ar      1 <0>        -0.0171
     19 C14        -1.2388    3.1318   -0.0014 C.ar      1 <0>        -0.0562
     20 C15        -0.1300    3.7030    0.5953 C.ar      1 <0>        -0.0038
     21 C16         1.0794    3.0340    0.5925 C.ar      1 <0>        -0.1295
     22 Br1         2.5958    3.8162    1.4076 Br        1 <0>        -0.0037
     23 N3         -2.5323    3.8514    0.0025 N.pl3     1 <0>         0.0295
     24 O4         -2.6191    4.9454    0.5309 O.2       1 <0>        -0.1529
     25 O5         -3.5099    3.3495   -0.5227 O.3       1 <0>        -0.1507
     26 H1          2.6366   -7.9214   -0.6140 H         1 <0>         0.1454
     27 H2          2.5513   -7.7523    1.8334 H         1 <0>         0.1454
     28 H3          2.8581   -5.5734    2.9437 H         1 <0>         0.1443
     29 H4          3.0292   -5.9141   -1.9892 H         1 <0>         0.1445
     30 H5          4.3417   -0.7508   -0.7115 H         1 <0>         0.1388
     31 H6          4.2793   -0.6281    1.0632 H         1 <0>         0.1391
     32 H7          3.2332    1.6021   -0.0865 H         1 <0>         0.4233
     33 H8          0.1382    0.2461   -1.0775 H         1 <0>         0.1712
     34 H9         -2.0076    1.4508   -1.0756 H         1 <0>         0.1665
     35 H10        -0.2090    4.6730    1.0636 H         1 <0>         0.1693
@<TRIPOS>BOND
     1    1    6 ar
     2    1    2 ar
     3    1   26 1
     4    2    3 ar
     5    2   27 1
     6    3    4 ar
     7    3   28 1
     8    4   10 1
     9    4    5 ar
    10    5    6 ar
    11    5    7 1
    12    6   29 1
    13    7    8 2
    14    7    9 am
    15    9   10 am
    16    9   12 1
    17   10   11 2
    18   12   13 1
    19   12   30 1
    20   12   31 1
    21   13   14 2
    22   13   15 am
    23   15   16 1
    24   15   32 1
    25   16   21 ar
    26   16   17 ar
    27   17   18 ar
    28   17   33 1
    29   18   19 ar
    30   18   34 1
    31   19   20 ar
    32   19   23 1
    33   20   21 ar
    34   20   35 1
    35   21   22 1
    36   23   24 2
    37   23   25 1
@<TRIPOS>MOLECULE
ZINC10669369
   34    37     0     0     0
SMALL
USER_CHARGES
N-(6-chlorobenzothiazol-2-yl)-2-[5-oxo-4-(2-thienyl)tetrazol-1-yl]-acetamide
@<TRIPOS>ATOM
      1 C1          0.8447   -2.2111   -0.0175 C.2       1 <0>        -0.1419
      2 C2          1.0716   -0.8477   -0.0123 C.2       1 <0>        -0.1515
      3 C3          0.0021   -0.0041    0.0020 C.2       1 <0>         0.0668
      4 S1         -1.3690   -1.1474    0.0163 S.3       1 <0>         0.1463
      5 C4         -0.4316   -2.6665   -0.0084 C.2       1 <0>        -0.1791
      6 N1         -0.0169    1.3946    0.0097 N.am      1 <0>        -0.3773
      7 C5         -1.1166    2.1785    0.0185 C.2       1 <0>         0.6549
      8 O1         -2.2770    1.8077    0.0213 O.2       1 <0>        -0.4939
      9 N2         -0.6752    3.4548    0.0271 N.am      1 <0>        -0.4593
     10 N3          0.7245    3.4158    0.0135 N.2       1 <0>         0.0477
     11 N4          1.1008    2.2380    0.0036 N.2       1 <0>         0.0489
     12 C6         -1.5083    4.6597    0.0415 C.3       1 <0>         0.1498
     13 C7         -1.7809    5.0649    1.4672 C.2       1 <0>         0.4997
     14 O2         -1.3243    4.4116    2.3811 O.2       1 <0>        -0.4750
     15 N5         -2.5322    6.1534    1.7265 N.am      1 <0>        -0.6036
     16 C8         -2.7829    6.5259    3.0373 C.2       1 <0>         0.3579
     17 N6         -3.4830    7.5418    3.4847 N.2       1 <0>        -0.5366
     18 C9         -3.6459    7.7869    4.8032 C.ar      1 <0>         0.1057
     19 C10        -4.3699    8.8376    5.4129 C.ar      1 <0>        -0.0532
     20 C11        -4.4357    8.9433    6.7774 C.ar      1 <0>        -0.0967
     21 C12        -3.7998    8.0294    7.6072 C.ar      1 <0>        -0.0223
     22 C13        -3.0829    6.9884    7.0443 C.ar      1 <0>        -0.0476
     23 C14        -3.0117    6.8757    5.6781 C.ar      1 <0>        -0.1746
     24 S2         -2.2415    5.7408    4.5488 S.3       1 <0>         0.1203
     25 Cl1        -3.9037    8.1909    9.3325 Cl        1 <0>        -0.0489
     26 H1          1.6731   -2.9039   -0.0285 H         1 <0>         0.1466
     27 H2          2.0788   -0.4581   -0.0190 H         1 <0>         0.1470
     28 H3         -0.7892   -3.6855   -0.0101 H         1 <0>         0.1963
     29 H4         -0.9877    5.4676   -0.4726 H         1 <0>         0.1537
     30 H5         -2.4517    4.4553   -0.4648 H         1 <0>         0.1519
     31 H6         -2.8975    6.6760    0.9954 H         1 <0>         0.4333
     32 H7         -4.8757    9.5656    4.7960 H         1 <0>         0.1440
     33 H8         -4.9951    9.7555    7.2175 H         1 <0>         0.1463
     34 H9         -2.5829    6.2689    7.6757 H         1 <0>         0.1443
@<TRIPOS>BOND
     1    1    5 2
     2    1    2 1
     3    1   26 1
     4    2    3 2
     5    2   27 1
     6    3    4 1
     7    3    6 1
     8    4    5 1
     9    5   28 1
    10    6   11 1
    11    6    7 am
    12    7    8 2
    13    7    9 am
    14    9   10 1
    15    9   12 1
    16   10   11 2
    17   12   13 1
    18   12   29 1
    19   12   30 1
    20   13   14 2
    21   13   15 am
    22   15   16 1
    23   15   31 1
    24   16   24 1
    25   16   17 2
    26   17   18 1
    27   18   23 ar
    28   18   19 ar
    29   19   20 ar
    30   19   32 1
    31   20   21 ar
    32   20   33 1
    33   21   22 ar
    34   21   25 1
    35   22   23 ar
    36   22   34 1
    37   23   24 1
@<TRIPOS>MOLECULE
ZINC06314557
   48    52     0     0     0
SMALL
USER_CHARGES

@<TRIPOS>ATOM
      1 C1         -0.0144    1.3180    0.0253 C.3       1 <0>        -0.0769
      2 C2          0.0340   -0.1874   -0.0242 C.2       1 <0>         0.0916
      3 C3          0.0523   -0.9697   -1.1835 C.2       1 <0>        -0.2761
      4 C4          0.0970   -2.2691   -0.8083 C.2       1 <0>         0.0900
      5 N1          0.1066   -2.3076    0.5406 N.pl3     1 <0>        -0.3696
      6 N2          0.0717   -0.9881    1.0099 N.2       1 <0>        -0.2905
      7 C5          0.1511   -3.5157    1.3681 C.3       1 <0>         0.0984
      8 C6          0.0260   -0.4563   -2.6001 C.3       1 <0>         0.1952
      9 N3          1.3700   -0.0196   -2.9862 N.pl3     1 <0>        -0.6722
     10 C7          1.5941    0.4937   -4.2524 C.2       1 <0>         0.2191
     11 C8          2.8178    0.9928   -4.5693 C.2       1 <0>        -0.0823
     12 C9          3.0816    1.5429   -5.9064 C.2       1 <0>         0.4426
     13 O1          4.1812    1.9859   -6.1765 O.2       1 <0>        -0.4350
     14 C10         2.0063    1.5562   -6.9238 C.ar      1 <0>        -0.1023
     15 C11         2.2364    2.0713   -8.1929 C.ar      1 <0>        -0.0668
     16 C12         1.2157    2.0740   -9.1314 C.ar      1 <0>        -0.0881
     17 C13        -0.0294    1.5675   -8.8125 C.ar      1 <0>        -0.1017
     18 C14        -0.2743    1.0504   -7.5498 C.ar      1 <0>        -0.0566
     19 C15         0.7392    1.0407   -6.5992 C.ar      1 <0>        -0.1273
     20 C16         0.5027    0.4879   -5.2473 C.2       1 <0>         0.4389
     21 O2         -0.5862    0.0347   -4.9555 O.2       1 <0>        -0.4028
     22 N4          3.8355    0.9833   -3.6137 N.pl3     1 <0>        -0.3229
     23 C17         4.4612    2.0811   -3.0661 C.ar      1 <0>         0.1053
     24 C18         4.3295    3.4541   -3.2393 C.ar      1 <0>        -0.1107
     25 C19         5.1300    4.3125   -2.5190 C.ar      1 <0>        -0.0665
     26 C20         6.0667    3.8153   -1.6220 C.ar      1 <0>        -0.1321
     27 C21         6.2112    2.4713   -1.4379 C.ar      1 <0>        -0.0358
     28 C22         5.4091    1.5769   -2.1584 C.ar      1 <0>        -0.0208
     29 N5          5.3257    0.2263   -2.1879 N.2       1 <0>        -0.2116
     30 N6          4.4170   -0.1461   -3.0189 N.2       1 <0>        -0.0166
     31 H1          1.0010    1.7143    0.0260 H         1 <0>         0.0761
     32 H2         -0.5502    1.6932   -0.8466 H         1 <0>         0.0774
     33 H3         -0.5289    1.6354    0.9323 H         1 <0>         0.0780
     34 H4          0.1204   -3.1224   -1.4698 H         1 <0>         0.1785
     35 H5          1.1892   -3.7819    1.5669 H         1 <0>         0.0790
     36 H6         -0.3632   -3.3296    2.3109 H         1 <0>         0.0925
     37 H7         -0.3396   -4.3347    0.8420 H         1 <0>         0.0910
     38 H8         -0.3037   -1.2515   -3.2687 H         1 <0>         0.0915
     39 H9         -0.6632    0.3853   -2.6688 H         1 <0>         0.0864
     40 H10         2.1030   -0.0900   -2.3547 H         1 <0>         0.4141
     41 H11         3.2076    2.4690   -8.4480 H         1 <0>         0.1464
     42 H12         1.3951    2.4750  -10.1180 H         1 <0>         0.1414
     43 H13        -0.8169    1.5748   -9.5515 H         1 <0>         0.1415
     44 H14        -1.2498    0.6564   -7.3057 H         1 <0>         0.1463
     45 H15         3.6029    3.8458   -3.9358 H         1 <0>         0.1290
     46 H16         5.0291    5.3795   -2.6527 H         1 <0>         0.1388
     47 H17         6.6880    4.5004   -1.0642 H         1 <0>         0.1382
     48 H18         6.9435    2.0972   -0.7377 H         1 <0>         0.1384
@<TRIPOS>BOND
     1    1    2 1
     2    1   31 1
     3    1   32 1
     4    1   33 1
     5    2    6 2
     6    2    3 1
     7    3    4 2
     8    3    8 1
     9    4    5 1
    10    4   34 1
    11    5    6 1
    12    5    7 1
    13    7   35 1
    14    7   36 1
    15    7   37 1
    16    8    9 1
    17    8   38 1
    18    8   39 1
    19    9   10 1
    20    9   40 1
    21   10   20 1
    22   10   11 2
    23   11   12 1
    24   11   22 1
    25   12   13 2
    26   12   14 1
    27   14   19 ar
    28   14   15 ar
    29   15   16 ar
    30   15   41 1
    31   16   17 ar
    32   16   42 1
    33   17   18 ar
    34   17   43 1
    35   18   19 ar
    36   18   44 1
    37   19   20 1
    38   20   21 2
    39   22   30 1
    40   22   23 1
    41   23   28 ar
    42   23   24 ar
    43   24   25 ar
    44   24   45 1
    45   25   26 ar
    46   25   46 1
    47   26   27 ar
    48   26   47 1
    49   27   28 ar
    50   27   48 1
    51   28   29 1
    52   29   30 2
@<TRIPOS>MOLECULE
ZINC39919208
   34    36     0     0     0
SMALL
USER_CHARGES

@<TRIPOS>ATOM
      1 C1          0.0121    1.3683    0.0309 C.ar      1 <0>        -0.0958
      2 C2          1.2012    2.0766    0.0196 C.ar      1 <0>        -0.1041
      3 C3          2.4101    1.4091   -0.0051 C.ar      1 <0>        -0.0761
      4 C4          2.4344    0.0232   -0.0186 C.ar      1 <0>         0.0402
      5 C5          1.2357   -0.6896   -0.0073 C.ar      1 <0>         0.0727
      6 C6          0.0263   -0.0128    0.0176 C.ar      1 <0>        -0.1000
      7 N1          1.5761   -2.0419   -0.0253 N.am      1 <0>        -0.5359
      8 C7          2.9214   -2.1208   -0.0465 C.2       1 <0>         0.6453
      9 O1          3.5641   -3.1529   -0.0661 O.2       1 <0>        -0.4785
     10 O2          3.4418   -0.8835   -0.0426 O.3       1 <0>        -0.2298
     11 C8          0.6420   -3.1705   -0.0212 C.3       1 <0>         0.1201
     12 C9          0.2993   -3.5442   -1.4403 C.2       1 <0>         0.4971
     13 O3          0.7873   -2.9283   -2.3643 O.2       1 <0>        -0.4883
     14 N2         -0.5494   -4.5627   -1.6828 N.am      1 <0>        -0.6666
     15 C10        -0.9412   -4.8497   -2.9955 C.ar      1 <0>         0.1786
     16 C11        -0.0465   -4.6741   -4.0429 C.ar      1 <0>        -0.0563
     17 C12        -0.4361   -4.9582   -5.3371 C.ar      1 <0>        -0.0143
     18 C13        -1.7159   -5.4167   -5.5911 C.ar      1 <0>        -0.0635
     19 C14        -2.6096   -5.5928   -4.5510 C.ar      1 <0>        -0.0669
     20 C15        -2.2243   -5.3163   -3.2528 C.ar      1 <0>        -0.0805
     21 Br1        -3.4445   -5.5647   -1.8297 Br        1 <0>        -0.0073
     22 N3          0.5173   -4.7712   -6.4538 N.pl3     1 <0>         0.0287
     23 O4          1.6361   -4.3701   -6.2327 O.2       1 <0>        -0.1428
     24 O5          0.1771   -5.0196   -7.5870 O.3       1 <0>        -0.1441
     25 H1         -0.9294    1.8969    0.0548 H         1 <0>         0.1414
     26 H2          1.1836    3.1565    0.0299 H         1 <0>         0.1450
     27 H3          3.3353    1.9661   -0.0141 H         1 <0>         0.1445
     28 H4         -0.9024   -0.5640    0.0268 H         1 <0>         0.1321
     29 H5          1.1039   -4.0226    0.4774 H         1 <0>         0.1385
     30 H6         -0.2670   -2.8879    0.5097 H         1 <0>         0.1350
     31 H7         -0.8887   -5.0967   -0.9476 H         1 <0>         0.4223
     32 H8          0.9529   -4.3155   -3.8456 H         1 <0>         0.1774
     33 H9         -2.0180   -5.6373   -6.6042 H         1 <0>         0.1671
     34 H10        -3.6083   -5.9510   -4.7526 H         1 <0>         0.1648
@<TRIPOS>BOND
     1    1    6 ar
     2    1    2 ar
     3    1   25 1
     4    2    3 ar
     5    2   26 1
     6    3    4 ar
     7    3   27 1
     8    4   10 1
     9    4    5 ar
    10    5    6 ar
    11    5    7 1
    12    6   28 1
    13    7    8 am
    14    7   11 1
    15    8    9 2
    16    8   10 1
    17   11   12 1
    18   11   29 1
    19   11   30 1
    20   12   13 2
    21   12   14 am
    22   14   15 1
    23   14   31 1
    24   15   20 ar
    25   15   16 ar
    26   16   17 ar
    27   16   32 1
    28   17   18 ar
    29   17   22 1
    30   18   19 ar
    31   18   33 1
    32   19   20 ar
    33   19   34 1
    34   20   21 1
    35   22   23 2
    36   22   24 1
@<TRIPOS>MOLECULE
ZINC40288106
   41    45     0     0     0
SMALL
USER_CHARGES

@<TRIPOS>ATOM
      1 C1         -0.0184    1.5028    0.0103 C.3       1 <0>        -0.0825
      2 C2          0.0021   -0.0041    0.0020 C.2       1 <0>         0.1450
      3 C3          0.0079   -0.8059   -1.1240 C.2       1 <0>        -0.2786
      4 C4          0.0320   -2.1293   -0.7061 C.2       1 <0>         0.3277
      5 N1          0.0339   -2.1193    0.6480 N.pl3     1 <0>        -0.3025
      6 N2          0.0231   -0.7776    1.0636 N.2       1 <0>        -0.2715
      7 C5          0.0483   -3.2410    1.4813 C.2       1 <0>         0.4177
      8 C6          0.0426   -3.0688    2.8783 C.2       1 <0>        -0.1550
      9 C7          0.0565   -4.1524    3.6994 C.2       1 <0>         0.0173
     10 C8          0.0764   -5.4408    3.1329 C.2       1 <0>         0.1256
     11 N3          0.0929   -6.6637    3.6382 N.2       1 <0>        -0.2418
     12 N4          0.1074   -7.5201    2.6769 N.2       1 <0>        -0.2572
     13 C9          0.1011   -6.9029    1.5213 C.2       1 <0>         0.1929
     14 N5          0.0814   -5.5751    1.7657 N.pl3     1 <0>        -0.2827
     15 N6          0.0614   -4.4409    0.9515 N.2       1 <0>        -0.2563
     16 N7          0.0571   -3.1597   -1.5984 N.2       1 <0>        -0.5493
     17 C10         0.3444   -2.9126   -2.8414 C.2       1 <0>         0.4178
     18 C11         0.7165   -1.5521   -3.3536 C.3       1 <0>        -0.1090
     19 C12        -0.0115   -0.4413   -2.5872 C.3       1 <0>         0.0386
     20 H1         -1.0416   -0.3655   -2.9355 H         1 <0>         0.1075
     21 C13         0.6973    0.8722   -2.7958 C.ar      1 <0>        -0.0755
     22 C14         2.0287    1.0017   -2.4468 C.ar      1 <0>        -0.0658
     23 C15         2.6798    2.2055   -2.6376 C.ar      1 <0>        -0.1433
     24 C16         1.9987    3.2831   -3.1786 C.ar      1 <0>         0.1195
     25 C17         0.6657    3.1533   -3.5285 C.ar      1 <0>        -0.1424
     26 C18         0.0169    1.9459   -3.3417 C.ar      1 <0>        -0.0018
     27 Cl1        -1.6532    1.7802   -3.7857 Cl        1 <0>        -0.0446
     28 F1          2.6346    4.4604   -3.3645 F         1 <0>        -0.1285
     29 O1          0.3065   -3.9355   -3.7195 O.3       1 <0>        -0.4488
     30 H2          1.0042    1.8801    0.0026 H         1 <0>         0.0865
     31 H3         -0.5455    1.8639   -0.8728 H         1 <0>         0.0834
     32 H4         -0.5286    1.8543    0.9071 H         1 <0>         0.0833
     33 H5          0.0277   -2.0741    3.2987 H         1 <0>         0.1748
     34 H6          0.0526   -4.0263    4.7720 H         1 <0>         0.1805
     35 H7          0.1104   -7.3718    0.5485 H         1 <0>         0.2337
     36 H8          1.7922   -1.4132   -3.2456 H         1 <0>         0.1138
     37 H9          0.4549   -1.4858   -4.4097 H         1 <0>         0.1179
     38 H10         2.5601    0.1617   -2.0245 H         1 <0>         0.1407
     39 H11         3.7199    2.3061   -2.3644 H         1 <0>         0.1456
     40 H12         0.1335    3.9931   -3.9501 H         1 <0>         0.1507
     41 H13         0.0606   -4.7835   -3.3251 H         1 <0>         0.4164
@<TRIPOS>BOND
     1    1    2 1
     2    1   30 1
     3    1   31 1
     4    1   32 1
     5    2    6 2
     6    2    3 1
     7    3   19 1
     8    3    4 2
     9    4    5 1
    10    4   16 1
    11    5    6 1
    12    5    7 1
    13    7   15 2
    14    7    8 1
    15    8    9 2
    16    8   33 1
    17    9   10 1
    18    9   34 1
    19   10   14 1
    20   10   11 2
    21   11   12 1
    22   12   13 2
    23   13   14 1
    24   13   35 1
    25   14   15 1
    26   16   17 2
    27   17   18 1
    28   17   29 1
    29   18   19 1
    30   18   36 1
    31   18   37 1
    32   19   20 1
    33   19   21 1
    34   21   26 ar
    35   21   22 ar
    36   22   23 ar
    37   22   38 1
    38   23   24 ar
    39   23   39 1
    40   24   25 ar
    41   24   28 1
    42   25   26 ar
    43   25   40 1
    44   26   27 1
    45   29   41 1
@<TRIPOS>MOLECULE
ZINC65735869
   43    46     0     0     0
SMALL
USER_CHARGES

@<TRIPOS>ATOM
      1 C1         -0.0184    1.5028    0.0103 C.3       1 <0>        -0.0760
      2 C2          0.0021   -0.0041    0.0020 C.2       1 <0>         0.2636
      3 N1          0.0080   -0.7588   -1.0626 N.2       1 <0>        -0.4399
      4 C3          0.0275   -2.0475   -0.6911 C.2       1 <0>         0.0486
      5 C4          0.0339   -2.0930    0.6548 C.2       1 <0>         0.0674
      6 N2          0.0232   -0.7970    1.0950 N.pl3     1 <0>        -0.4398
      7 C5          0.0299   -0.3529    2.4911 C.3       1 <0>         0.0900
      8 C6         -1.3850   -0.1024    2.9453 C.2       1 <0>         0.4913
      9 O1         -2.3081   -0.2775    2.1784 O.2       1 <0>        -0.4720
     10 N3         -1.6246    0.3162    4.2038 N.am      1 <0>        -0.6120
     11 C7         -2.9274    0.5469    4.6221 C.2       1 <0>         0.1012
     12 C8         -3.3772    0.9816    5.8629 C.2       1 <0>        -0.0954
     13 C9         -4.8077    1.1412    6.0424 C.2       1 <0>        -0.0357
     14 C10        -5.5882    0.8581    4.9510 C.2       1 <0>        -0.1877
     15 S1         -4.4443    0.3669    3.6984 S.3       1 <0>         0.2457
     16 C11        -7.0752    0.9838    4.9056 C.3       1 <0>        -0.0353
     17 C12        -7.6555    0.7045    6.2932 C.3       1 <0>        -0.0759
     18 C13        -6.8819    1.4043    7.3774 C.ar      1 <0>        -0.0671
     19 C14        -5.5048    1.6003    7.2829 C.ar      1 <0>        -0.0303
     20 C15        -4.7988    2.2113    8.3094 C.ar      1 <0>        -0.1108
     21 C16        -5.4753    2.6515    9.4319 C.ar      1 <0>        -0.1175
     22 C17        -6.8452    2.4810    9.5199 C.ar      1 <0>        -0.1107
     23 C18        -7.5459    1.8612    8.5019 C.ar      1 <0>        -0.1148
     24 C19        -2.4608    1.2625    6.9268 C.1       1 <0>         0.2656
     25 N4         -1.7338    1.4854    7.7708 N.1       1 <0>        -0.4108
     26 N5          0.0393   -3.2150   -1.6011 N.pl3     1 <0>         0.0681
     27 O2          0.0319   -3.0482   -2.7985 O.2       1 <0>        -0.1241
     28 O3          0.0565   -4.3352   -1.1468 O.3       1 <0>        -0.1565
     29 H1          1.0042    1.8801    0.0026 H         1 <0>         0.0962
     30 H2         -0.5455    1.8639   -0.8728 H         1 <0>         0.1061
     31 H3         -0.5286    1.8543    0.9071 H         1 <0>         0.0802
     32 H4          0.0489   -2.9814    1.2688 H         1 <0>         0.2086
     33 H5          0.4808   -1.1242    3.1155 H         1 <0>         0.1466
     34 H6          0.6074    0.5675    2.5768 H         1 <0>         0.1465
     35 H7         -0.8863    0.4563    4.8172 H         1 <0>         0.4261
     36 H8         -7.3450    1.9934    4.5958 H         1 <0>         0.0922
     37 H9         -7.4787    0.2653    4.1921 H         1 <0>         0.0922
     38 H10        -8.6906    1.0451    6.3199 H         1 <0>         0.0899
     39 H11        -7.6323   -0.3695    6.4778 H         1 <0>         0.0843
     40 H12        -3.7295    2.3416    8.2323 H         1 <0>         0.1227
     41 H13        -4.9359    3.1275   10.2375 H         1 <0>         0.1255
     42 H14        -7.3728    2.8357   10.3929 H         1 <0>         0.1255
     43 H15        -8.6151    1.7335    8.5846 H         1 <0>         0.1284
@<TRIPOS>BOND
     1    1    2 1
     2    1   29 1
     3    1   30 1
     4    1   31 1
     5    2    6 1
     6    2    3 2
     7    3    4 1
     8    4    5 2
     9    4   26 1
    10    5    6 1
    11    5   32 1
    12    6    7 1
    13    7    8 1
    14    7   33 1
    15    7   34 1
    16    8    9 2
    17    8   10 am
    18   10   11 1
    19   10   35 1
    20   11   15 1
    21   11   12 2
    22   12   13 1
    23   12   24 1
    24   13   19 1
    25   13   14 2
    26   14   15 1
    27   14   16 1
    28   16   17 1
    29   16   36 1
    30   16   37 1
    31   17   18 1
    32   17   38 1
    33   17   39 1
    34   18   23 ar
    35   18   19 ar
    36   19   20 ar
    37   20   21 ar
    38   20   40 1
    39   21   22 ar
    40   21   41 1
    41   22   23 ar
    42   22   42 1
    43   23   43 1
    44   24   25 3
    45   26   27 2
    46   26   28 1
@<TRIPOS>MOLECULE
ZINC29351934
   46    47     0     0     0
SMALL
USER_CHARGES
(2S)-2-[(4,6-diamino-1,3,5-triazin-2-yl)methylsulfanyl]-N-methyl-N-(o-tolylmethyl)propanamide
@<TRIPOS>ATOM
      1 C1          1.3876    2.3793    2.5414 C.3       1 <0>        -0.1200
      2 C2          0.8420    2.7034    1.1745 C.ar      1 <0>        -0.0805
      3 C3         -0.2893    3.4883    1.0500 C.ar      1 <0>        -0.1175
      4 C4         -0.7868    3.7896   -0.2038 C.ar      1 <0>        -0.1185
      5 C5         -0.1593    3.2973   -1.3331 C.ar      1 <0>        -0.1229
      6 C6          0.9687    2.5082   -1.2084 C.ar      1 <0>        -0.1038
      7 C7          1.4694    2.2112    0.0456 C.ar      1 <0>        -0.1012
      8 C8          2.6989    1.3505    0.1816 C.3       1 <0>         0.1575
      9 N1          3.2008    1.0022   -1.1500 N.am      1 <0>        -0.6121
     10 C9          2.7387   -0.2214   -1.8100 C.3       1 <0>         0.0616
     11 C10         4.0877    1.8073   -1.7677 C.2       1 <0>         0.5320
     12 O1          4.4702    2.8202   -1.2213 O.2       1 <0>        -0.5080
     13 C11         4.6040    1.4490   -3.1374 C.3       1 <0>        -0.1118
     14 H1          3.7613    0.9195   -3.6059 H         1 <0>         0.1148
     15 C12         5.7074    0.3971   -3.0074 C.3       1 <0>        -0.1509
     16 S1          5.2740    2.9324   -3.9382 S.3       1 <0>        -0.1139
     17 C13         5.7063    2.3721   -5.6085 C.3       1 <0>        -0.0488
     18 C14         6.2825    3.5238   -6.3912 C.ar      1 <0>         0.4478
     19 N2          5.4853    4.3014   -7.1026 N.ar      1 <0>        -0.6334
     20 C15         5.9899    5.3224   -7.7916 C.ar      1 <0>         0.6350
     21 N3          7.2981    5.5531   -7.7715 N.ar      1 <0>        -0.6637
     22 C16         8.0970    4.7661   -7.0592 C.ar      1 <0>         0.6350
     23 N4          7.5843    3.7501   -6.3687 N.ar      1 <0>        -0.6325
     24 N5          9.4565    5.0013   -7.0355 N.pl3     1 <0>        -0.8304
     25 N6          5.1559    6.1371   -8.5300 N.pl3     1 <0>        -0.8306
     26 H2          0.7600    2.8556    3.3091 H         1 <0>         0.0674
     27 H3          2.4176    2.7565    2.6239 H         1 <0>         0.0720
     28 H4          1.3834    1.2892    2.6889 H         1 <0>         0.0700
     29 H5         -0.7821    3.8692    1.9323 H         1 <0>         0.1224
     30 H6         -1.6683    4.4059   -0.3012 H         1 <0>         0.1214
     31 H7         -0.5506    3.5290   -2.3127 H         1 <0>         0.1205
     32 H8          1.4586    2.1233   -2.0906 H         1 <0>         0.1169
     33 H9          3.4741    1.9030    0.7327 H         1 <0>         0.0998
     34 H10         2.4443    0.4313    0.7295 H         1 <0>         0.0942
     35 H11         3.2221   -0.3123   -2.7939 H         1 <0>         0.0844
     36 H12         1.6473   -0.1779   -1.9403 H         1 <0>         0.0690
     37 H13         2.9997   -1.0927   -1.1913 H         1 <0>         0.0708
     38 H14         6.0843    0.1356   -4.0072 H         1 <0>         0.0733
     39 H15         5.3011   -0.5024   -2.5218 H         1 <0>         0.0707
     40 H16         6.5301    0.8019   -2.3997 H         1 <0>         0.0776
     41 H17         6.4502    1.5644   -5.5432 H         1 <0>         0.1135
     42 H18         4.8039    1.9993   -6.1152 H         1 <0>         0.1123
     43 H19        10.1173    4.3492   -6.4455 H         1 <0>         0.4415
     44 H20         9.8795    5.8409   -7.6066 H         1 <0>         0.4390
     45 H21         5.5737    6.9806   -9.0991 H         1 <0>         0.4390
     46 H22         4.0733    5.9429   -8.5495 H         1 <0>         0.4412
@<TRIPOS>BOND
     1    1    2 1
     2    1   26 1
     3    1   27 1
     4    1   28 1
     5    2    7 ar
     6    2    3 ar
     7    3    4 ar
     8    3   29 1
     9    4    5 ar
    10    4   30 1
    11    5    6 ar
    12    5   31 1
    13    6    7 ar
    14    6   32 1
    15    7    8 1
    16    8    9 1
    17    8   33 1
    18    8   34 1
    19    9   10 1
    20    9   11 am
    21   10   35 1
    22   10   36 1
    23   10   37 1
    24   11   12 2
    25   11   13 1
    26   13   14 1
    27   13   15 1
    28   13   16 1
    29   15   38 1
    30   15   39 1
    31   15   40 1
    32   16   17 1
    33   17   18 1
    34   17   41 1
    35   17   42 1
    36   18   23 ar
    37   18   19 ar
    38   19   20 ar
    39   20   21 ar
    40   20   25 1
    41   21   22 ar
    42   22   23 ar
    43   22   24 1
    44   24   43 1
    45   24   44 1
    46   25   45 1
    47   25   46 1
@<TRIPOS>MOLECULE
ZINC39324745
   40    43     0     0     0
SMALL
USER_CHARGES

@<TRIPOS>ATOM
      1 C1         -0.0187    1.5258    0.0104 C.3       1 <0>        -0.1692
      2 C2          0.0021   -0.0041    0.0020 C.3       1 <0>         0.1230
      3 N1         -1.3723   -0.5112    0.0124 N.pl3     1 <0>        -0.6689
      4 C3         -1.6053   -1.8669    0.0074 C.2       1 <0>         0.4575
      5 N2         -0.7071   -2.8388   -0.0006 N.2       1 <0>        -0.6089
      6 C4         -1.1654   -4.2069    0.1094 C.3       1 <0>         0.3386
      7 H1         -1.2869   -4.4466    1.1658 H         1 <0>         0.1020
      8 C5         -2.5668   -4.3044   -0.5781 C.3       1 <0>        -0.0729
      9 H2         -2.4608   -4.2935   -1.6629 H         1 <0>         0.1470
     10 S1         -3.1973   -2.7048    0.0181 S.3       1 <0>        -0.1410
     11 C6         -3.1968   -5.5560   -0.1410 C.2       1 <0>         0.1628
     12 C7         -2.3693   -6.6368   -0.1660 C.2       1 <0>        -0.2101
     13 C8         -2.8569   -7.9860    0.2698 C.3       1 <0>         0.1493
     14 H3         -2.1010   -8.4569    0.8982 H         1 <0>         0.1149
     15 C9         -4.1381   -7.8541    1.0467 C.2       1 <0>        -0.2672
     16 C10        -4.8660   -6.7120    0.9963 C.2       1 <0>         0.4394
     17 O1         -4.4698   -5.6609    0.2554 O.3       1 <0>        -0.2222
     18 N3         -6.0318   -6.6257    1.7159 N.pl3     1 <0>        -0.8221
     19 C11        -4.5945   -8.9488    1.8490 C.1       1 <0>         0.2727
     20 N4         -4.9566   -9.8173    2.4856 N.1       1 <0>        -0.4310
     21 C12        -3.1008   -8.8442   -0.9447 C.2       1 <0>        -0.1280
     22 C13        -2.5338  -10.0286   -1.2808 C.2       1 <0>        -0.1381
     23 C14        -2.9157  -10.6446   -2.4578 C.2       1 <0>        -0.1513
     24 C15        -3.8459  -10.0460   -3.2412 C.2       1 <0>        -0.1743
     25 S2         -4.2171   -8.5685   -2.3104 S.3       1 <0>         0.0284
     26 C16        -0.9933   -6.4614   -0.6486 C.2       1 <0>         0.5775
     27 O2         -0.4113   -7.3935   -1.1722 O.2       1 <0>        -0.4951
     28 N5         -0.3775   -5.2648   -0.5161 N.am      1 <0>        -0.7090
     29 H4          1.0039    1.9031    0.0027 H         1 <0>         0.0815
     30 H5         -0.5459    1.8868   -0.8726 H         1 <0>         0.0651
     31 H6         -0.5289    1.8773    0.9072 H         1 <0>         0.0650
     32 H7          0.5123   -0.3556   -0.8948 H         1 <0>         0.0749
     33 H8          0.5293   -0.3651    0.8851 H         1 <0>         0.0751
     34 H9         -2.1181    0.1091    0.0229 H         1 <0>         0.4221
     35 H10        -6.3268   -7.3774    2.2534 H         1 <0>         0.4293
     36 H11        -6.5606   -5.8130    1.6871 H         1 <0>         0.4145
     37 H12        -1.7944  -10.4841   -0.6387 H         1 <0>         0.1320
     38 H13        -2.4792  -11.5886   -2.7491 H         1 <0>         0.1331
     39 H14        -4.2584  -10.3786   -4.1823 H         1 <0>         0.1841
     40 H15         0.5318   -5.1247   -0.8234 H         1 <0>         0.4198
@<TRIPOS>BOND
     1    1    2 1
     2    1   29 1
     3    1   30 1
     4    1   31 1
     5    2    3 1
     6    2   32 1
     7    2   33 1
     8    3    4 1
     9    3   34 1
    10    4   10 1
    11    4    5 2
    12    5    6 1
    13    6    7 1
    14    6   28 1
    15    6    8 1
    16    8    9 1
    17    8   10 1
    18    8   11 1
    19   11   17 1
    20   11   12 2
    21   12   13 1
    22   12   26 1
    23   13   14 1
    24   13   15 1
    25   13   21 1
    26   15   16 2
    27   15   19 1
    28   16   17 1
    29   16   18 1
    30   18   35 1
    31   18   36 1
    32   19   20 3
    33   21   25 1
    34   21   22 2
    35   22   23 1
    36   22   37 1
    37   23   24 2
    38   23   38 1
    39   24   25 1
    40   24   39 1
    41   26   27 2
    42   26   28 am
    43   28   40 1
@<TRIPOS>MOLECULE
ZINC20412436
   49    53     0     0     0
SMALL
USER_CHARGES

@<TRIPOS>ATOM
      1 C1         -0.0167    1.3781    0.0096 C.ar      1 <0>        -0.1128
      2 C2          1.1709    2.0855    0.0021 C.ar      1 <0>        -0.1299
      3 C3          2.3773    1.4107   -0.0130 C.ar      1 <0>        -0.0958
      4 C4          2.3960    0.0285   -0.0201 C.ar      1 <0>        -0.1117
      5 C5          1.2084   -0.6789   -0.0117 C.ar      1 <0>        -0.0937
      6 C6          0.0021   -0.0041    0.0020 C.ar      1 <0>        -0.1259
      7 C7          3.7112   -0.7071   -0.0376 C.3       1 <0>         0.1557
      8 N1          4.1518   -0.9524    1.3379 N.am      1 <0>        -0.5543
      9 C8          4.9196   -0.0406    1.9669 C.2       1 <0>         0.5761
     10 O1          5.2473    0.9848    1.3954 O.2       1 <0>        -0.5725
     11 C9          5.3397   -0.2804    3.2874 C.2       1 <0>        -0.5420
     12 C10         4.9591   -1.4350    3.9043 C.2       1 <0>         0.5257
     13 N2          4.1770   -2.3362    3.2272 N.am      1 <0>        -0.6542
     14 H1          3.9034   -3.1589    3.6621 H         1 <0>         0.4271
     15 C11         3.7824   -2.0837    1.9658 C.2       1 <0>         0.7050
     16 O2          3.0853   -2.8918    1.3832 O.2       1 <0>        -0.5493
     17 O3          5.3490   -1.6897    5.1713 O.3       1 <0>        -0.6463
     18 C12         6.1990    0.7247    4.0102 C.3       1 <0>         0.2310
     19 H2          6.3455    0.4059    5.0422 H         1 <0>         0.1518
     20 C13         7.5371    0.8373    3.3196 C.2       1 <0>         0.0855
     21 C14         8.1528    2.0216    3.0981 C.2       1 <0>        -0.1898
     22 C15         9.3965    1.7371    2.4192 C.ar      1 <0>        -0.0894
     23 C16        10.4296    2.5511    1.9440 C.ar      1 <0>        -0.0703
     24 C17        11.4861    1.9218    1.3337 C.ar      1 <0>        -0.1448
     25 C18        11.5389    0.5452    1.1883 C.ar      1 <0>        -0.0977
     26 C19        10.5318   -0.2848    1.6491 C.ar      1 <0>        -0.1263
     27 C20         9.4462    0.3259    2.2731 C.ar      1 <0>         0.1034
     28 N3          8.3068   -0.1820    2.8297 N.pl3     1 <0>        -0.5532
     29 H3          8.0781   -1.1238    2.8716 H         1 <0>         0.4211
     30 C21         7.5713    3.3468    3.5223 C.3       1 <0>        -0.0578
     31 C22         6.4470    3.0658    4.5292 C.3       1 <0>        -0.0053
     32 N4          5.5431    2.0413    3.9886 N.4       1 <0>        -0.5010
     33 H4         -0.9591    1.9053    0.0259 H         1 <0>         0.1212
     34 H5          1.1563    3.1654    0.0076 H         1 <0>         0.1211
     35 H6          3.3051    1.9634   -0.0196 H         1 <0>         0.1283
     36 H7          1.2231   -1.7588   -0.0176 H         1 <0>         0.1291
     37 H8         -0.9258   -0.5567    0.0082 H         1 <0>         0.1227
     38 H9          3.5884   -1.6586   -0.5549 H         1 <0>         0.1006
     39 H10         4.4573   -0.1052   -0.5563 H         1 <0>         0.1048
     40 H11        10.3976    3.6252    2.0519 H         1 <0>         0.1287
     41 H12        12.3020    2.5192    0.9544 H         1 <0>         0.1195
     42 H13        12.3951    0.1047    0.6991 H         1 <0>         0.1227
     43 H14        10.5848   -1.3569    1.5298 H         1 <0>         0.1289
     44 H15         8.3439    3.9554    3.9922 H         1 <0>         0.1088
     45 H16         7.1675    3.8676    2.6541 H         1 <0>         0.0922
     46 H17         6.8780    2.7095    5.4648 H         1 <0>         0.1264
     47 H18         5.8869    3.9826    4.7134 H         1 <0>         0.1295
     48 H19         5.3020    2.2793    3.0381 H         1 <0>         0.4314
     49 H20         4.7026    2.0055    4.5457 H         1 <0>         0.4258
@<TRIPOS>BOND
     1    1    6 ar
     2    1    2 ar
     3    1   33 1
     4    2    3 ar
     5    2   34 1
     6    3    4 ar
     7    3   35 1
     8    4    5 ar
     9    4    7 1
    10    5    6 ar
    11    5   36 1
    12    6   37 1
    13    7   38 1
    14    7   39 1
    15    7    8 1
    16    8   15 am
    17    8    9 am
    18    9   10 2
    19    9   11 1
    20   11   18 1
    21   11   12 2
    22   12   17 1
    23   12   13 1
    24   13   14 1
    25   13   15 am
    26   15   16 2
    27   18   19 1
    28   18   32 1
    29   18   20 1
    30   20   28 1
    31   20   21 2
    32   21   22 1
    33   21   30 1
    34   22   27 ar
    35   22   23 ar
    36   23   24 ar
    37   23   40 1
    38   24   25 ar
    39   24   41 1
    40   25   26 ar
    41   25   42 1
    42   26   27 ar
    43   26   43 1
    44   27   28 1
    45   28   29 1
    46   30   31 1
    47   30   44 1
    48   30   45 1
    49   31   32 1
    50   31   46 1
    51   31   47 1
    52   32   48 1
    53   32   49 1
@<TRIPOS>MOLECULE
ZINC59416588
   43    46     0     0     0
SMALL
USER_CHARGES

@<TRIPOS>ATOM
      1 C1         -0.0184    1.5028    0.0103 C.3       1 <0>        -0.0797
      2 C2          0.0021   -0.0041    0.0020 C.2       1 <0>         0.1279
      3 C3          0.0080   -0.8116   -1.1277 C.2       1 <0>        -0.2523
      4 C4          0.0276   -2.1154   -0.7172 C.2       1 <0>         0.2754
      5 N1          0.0351   -2.1158    0.6337 N.pl3     1 <0>        -0.3014
      6 N2          0.0231   -0.7786    1.0610 N.2       1 <0>        -0.2589
      7 C5          0.0553   -3.2477    1.4600 C.ar      1 <0>         0.1614
      8 C6         -0.6159   -4.4014    1.0755 C.ar      1 <0>        -0.1316
      9 C7         -0.5957   -5.5171    1.8896 C.ar      1 <0>        -0.0794
     10 C8          0.0915   -5.4886    3.0884 C.ar      1 <0>        -0.1418
     11 C9          0.7638   -4.3388    3.4775 C.ar      1 <0>         0.1281
     12 C10         0.7504   -3.2190    2.6602 C.ar      1 <0>        -0.1314
     13 O1          1.4392   -4.3121    4.6564 O.3       1 <0>        -0.4925
     14 O2          0.0349   -3.1571   -1.5851 O.3       1 <0>        -0.2258
     15 C11        -0.2537   -2.8957   -2.8763 C.2       1 <0>         0.4384
     16 C12        -0.2906   -1.6511   -3.4018 C.2       1 <0>        -0.2577
     17 C13        -0.0036   -0.4178   -2.5823 C.3       1 <0>         0.1221
     18 H1         -0.7798    0.3276   -2.7553 H         1 <0>         0.1004
     19 C14         1.3396    0.1469   -2.9669 C.ar      1 <0>        -0.0561
     20 C15         2.4760   -0.6322   -2.8490 C.ar      1 <0>        -0.1088
     21 C16         3.7097   -0.1171   -3.2009 C.ar      1 <0>        -0.1019
     22 C17         3.8101    1.1782   -3.6711 C.ar      1 <0>        -0.1458
     23 C18         2.6717    1.9618   -3.7903 C.ar      1 <0>         0.1073
     24 C19         1.4339    1.4404   -3.4421 C.ar      1 <0>        -0.1357
     25 O3          2.7679    3.2361   -4.2526 O.3       1 <0>        -0.4994
     26 C20        -0.6137   -1.4976   -4.7883 C.1       1 <0>         0.2707
     27 N3         -0.8701   -1.3758   -5.8883 N.1       1 <0>        -0.4360
     28 N4         -0.5253   -3.9557   -3.7053 N.pl3     1 <0>        -0.8297
     29 H2          1.0042    1.8801    0.0026 H         1 <0>         0.0875
     30 H3         -0.5455    1.8639   -0.8728 H         1 <0>         0.0851
     31 H4         -0.5286    1.8543    0.9071 H         1 <0>         0.0814
     32 H5         -1.1543   -4.4259    0.1396 H         1 <0>         0.1324
     33 H6         -1.1182   -6.4132    1.5889 H         1 <0>         0.1409
     34 H7          0.1050   -6.3622    3.7232 H         1 <0>         0.1387
     35 H8          1.2765   -2.3246    2.9595 H         1 <0>         0.1437
     36 H9          2.3626   -4.5910    4.5872 H         1 <0>         0.3964
     37 H10         2.3997   -1.6447   -2.4810 H         1 <0>         0.1146
     38 H11         4.5957   -0.7276   -3.1079 H         1 <0>         0.1252
     39 H12         4.7742    1.5804   -3.9453 H         1 <0>         0.1272
     40 H13         0.5455    2.0469   -3.5385 H         1 <0>         0.1298
     41 H14         2.6819    3.3138   -5.2126 H         1 <0>         0.3911
     42 H15        -0.5063   -4.8609   -3.3572 H         1 <0>         0.4118
     43 H16        -0.7363   -3.7994   -4.6391 H         1 <0>         0.4285
@<TRIPOS>BOND
     1    1    2 1
     2    1   29 1
     3    1   30 1
     4    1   31 1
     5    2    6 2
     6    2    3 1
     7    3   17 1
     8    3    4 2
     9    4    5 1
    10    4   14 1
    11    5    6 1
    12    5    7 1
    13    7   12 ar
    14    7    8 ar
    15    8    9 ar
    16    8   32 1
    17    9   10 ar
    18    9   33 1
    19   10   11 ar
    20   10   34 1
    21   11   12 ar
    22   11   13 1
    23   12   35 1
    24   13   36 1
    25   14   15 1
    26   15   16 2
    27   15   28 1
    28   16   17 1
    29   16   26 1
    30   17   18 1
    31   17   19 1
    32   19   24 ar
    33   19   20 ar
    34   20   21 ar
    35   20   37 1
    36   21   22 ar
    37   21   38 1
    38   22   23 ar
    39   22   39 1
    40   23   24 ar
    41   23   25 1
    42   24   40 1
    43   25   41 1
    44   26   27 3
    45   28   42 1
    46   28   43 1
@<TRIPOS>MOLECULE
ZINC67396100
   54    56     0     0     0
SMALL
USER_CHARGES

@<TRIPOS>ATOM
      1 C1         -1.1088   -1.5141    2.6942 C.3       1 <0>        -0.1577
      2 C2         -0.0111   -0.4528    2.5963 C.3       1 <0>         0.1035
      3 H1          0.7322   -0.6176    3.3763 H         1 <0>         0.1498
      4 C3         -0.6246    0.9451    2.7501 C.3       1 <0>        -0.1178
      5 C4         -1.7121    1.1262    1.6914 C.3       1 <0>        -0.0654
      6 H2         -2.5543    0.4748    1.9248 H         1 <0>         0.1088
      7 C5         -1.1803    0.7820    0.3251 C.ar      1 <0>        -0.1034
      8 C6         -1.8335    1.2751   -0.7921 C.ar      1 <0>        -0.1044
      9 C7         -1.3717    0.9747   -2.0588 C.ar      1 <0>        -0.1316
     10 C8         -0.2526    0.1779   -2.2197 C.ar      1 <0>        -0.0953
     11 C9          0.4050   -0.3170   -1.1118 C.ar      1 <0>        -0.1459
     12 C10        -0.0572   -0.0146    0.1647 C.ar      1 <0>         0.1615
     13 N1          0.6299   -0.5203    1.2759 N.am      1 <0>        -0.5181
     14 C11         1.8576   -1.0589    1.1373 C.2       1 <0>         0.5067
     15 O1          2.4330   -0.9915    0.0707 O.2       1 <0>        -0.4962
     16 C12         2.5101   -1.7386    2.2961 C.2       1 <0>         0.5140
     17 O2          1.8924   -1.9070    3.3272 O.2       1 <0>        -0.5056
     18 N2          3.7848   -2.1649    2.1969 N.am      1 <0>        -0.6875
     19 C13         4.4247   -2.8317    3.3336 C.3       1 <0>         0.1451
     20 H3          4.0663   -2.3893    4.2631 H         1 <0>         0.0977
     21 C14         4.0791   -4.3219    3.3114 C.3       1 <0>        -0.1663
     22 C15         5.9419   -2.6586    3.2382 C.3       1 <0>        -0.0894
     23 C16         6.2912   -1.1998    3.3834 C.ar      1 <0>        -0.0971
     24 C17         6.3551   -0.3908    2.2639 C.ar      1 <0>        -0.0974
     25 C18         6.6755    0.9467    2.3943 C.ar      1 <0>        -0.1413
     26 C19         6.9329    1.4779    3.6498 C.ar      1 <0>         0.1043
     27 C20         6.8677    0.6641    4.7714 C.ar      1 <0>        -0.1422
     28 C21         6.5417   -0.6715    4.6363 C.ar      1 <0>        -0.0973
     29 O3          7.2487    2.7932    3.7806 O.3       1 <0>        -0.5003
     30 C22        -2.1759    2.5601    1.6940 C.2       1 <0>         0.5293
     31 O4         -1.4357    3.4362    2.0882 O.2       1 <0>        -0.5313
     32 N3         -3.4134    2.8689    1.2583 N.am      1 <0>        -0.8561
     33 H4         -0.6693   -2.5038    2.5701 H         1 <0>         0.0640
     34 H5         -1.5901   -1.4500    3.6701 H         1 <0>         0.0765
     35 H6         -1.8489   -1.3445    1.9122 H         1 <0>         0.0584
     36 H7         -1.0619    1.0447    3.7436 H         1 <0>         0.0926
     37 H8          0.1489    1.7006    2.6121 H         1 <0>         0.0876
     38 H9         -2.7082    1.8971   -0.6724 H         1 <0>         0.1269
     39 H10        -1.8859    1.3626   -2.9256 H         1 <0>         0.1259
     40 H11         0.1059   -0.0569   -3.2110 H         1 <0>         0.1290
     41 H12         1.2786   -0.9397   -1.2361 H         1 <0>         0.1656
     42 H13         4.2784   -2.0303    1.3728 H         1 <0>         0.4116
     43 H14         4.5552   -4.8180    4.1571 H         1 <0>         0.0732
     44 H15         2.9982   -4.4452    3.3794 H         1 <0>         0.0649
     45 H16         4.4375   -4.7643    2.3819 H         1 <0>         0.0618
     46 H17         6.4233   -3.2283    4.0331 H         1 <0>         0.0966
     47 H18         6.2888   -3.0207    2.2704 H         1 <0>         0.0835
     48 H19         6.1547   -0.8048    1.2868 H         1 <0>         0.1241
     49 H20         6.7260    1.5781    1.5195 H         1 <0>         0.1289
     50 H21         7.0676    1.0754    5.7499 H         1 <0>         0.1293
     51 H22         6.4865   -1.3045    5.5096 H         1 <0>         0.1279
     52 H23         6.4838    3.3703    3.9108 H         1 <0>         0.3922
     53 H24        -3.9790    2.1797    0.8761 H         1 <0>         0.4023
     54 H25        -3.7384    3.7802    1.3270 H         1 <0>         0.4041
@<TRIPOS>BOND
     1    1    2 1
     2    1   33 1
     3    1   34 1
     4    1   35 1
     5    2    3 1
     6    2   13 1
     7    2    4 1
     8    4    5 1
     9    4   36 1
    10    4   37 1
    11    5    6 1
    12    5    7 1
    13    5   30 1
    14    7   12 ar
    15    7    8 ar
    16    8    9 ar
    17    8   38 1
    18    9   10 ar
    19    9   39 1
    20   10   11 ar
    21   10   40 1
    22   11   12 ar
    23   11   41 1
    24   12   13 1
    25   13   14 am
    26   14   15 2
    27   14   16 1
    28   16   17 2
    29   16   18 am
    30   18   19 1
    31   18   42 1
    32   19   20 1
    33   19   21 1
    34   19   22 1
    35   21   43 1
    36   21   44 1
    37   21   45 1
    38   22   23 1
    39   22   46 1
    40   22   47 1
    41   23   28 ar
    42   23   24 ar
    43   24   25 ar
    44   24   48 1
    45   25   26 ar
    46   25   49 1
    47   26   27 ar
    48   26   29 1
    49   27   28 ar
    50   27   50 1
    51   28   51 1
    52   29   52 1
    53   30   31 2
    54   30   32 am
    55   32   53 1
    56   32   54 1
@<TRIPOS>MOLECULE
ZINC02737731
   44    47     0     0     0
SMALL
USER_CHARGES
3-benzo[1,3]dioxol-5-yl-N-[4-(thiazol-2-ylsulfamoyl)phenyl]-prop-2-enamide
@<TRIPOS>ATOM
      1 C1         -4.7174   -0.5009    0.2019 C.ar      1 <0>        -0.1712
      2 C2         -5.8742   -1.2493    0.2971 C.ar      1 <0>         0.0255
      3 C3         -7.1068   -0.6223    0.3007 C.ar      1 <0>        -0.6921
      4 C4         -7.1854    0.7556    0.2134 C.ar      1 <0>         0.0002
      5 C5         -6.0322    1.5102    0.1233 C.ar      1 <0>        -0.1478
      6 C6         -4.7926    0.8837    0.1198 C.ar      1 <0>         0.2091
      7 N1         -3.6232    1.6446    0.0282 N.am      1 <0>        -0.6725
      8 C7         -3.5580    2.8539    0.6198 C.2       1 <0>         0.5515
      9 O1         -4.5432    3.3202    1.1618 O.2       1 <0>        -0.5166
     10 C8         -2.3040    3.6056    0.6104 C.2       1 <0>        -0.2217
     11 C9         -2.2387    4.8169    1.2030 C.2       1 <0>         0.0057
     12 C10        -0.9763    5.5700    1.1989 C.ar      1 <0>        -0.0749
     13 C11         0.1577    5.0361    0.5764 C.ar      1 <0>        -0.0845
     14 C12         1.3391    5.7440    0.5742 C.ar      1 <0>        -0.1036
     15 C13         1.4106    6.9878    1.1881 C.ar      1 <0>         0.0505
     16 C14         0.2837    7.5268    1.8110 C.ar      1 <0>         0.0296
     17 C15        -0.9060    6.8258    1.8126 C.ar      1 <0>        -0.0724
     18 O2          0.6149    8.7447    2.3318 O.3       1 <0>        -0.3057
     19 C16         1.8352    9.1261    1.6697 C.3       1 <0>         0.2123
     20 O3          2.4434    7.8687    1.3208 O.3       1 <0>        -0.3052
     21 S1         -8.5804   -1.5813    0.4162 S.o2      1 <0>         2.6884
     22 O4         -8.2192   -2.8080    1.0358 O.2       1 <0>        -0.9204
     23 O5         -9.5816   -0.7248    0.9484 O.2       1 <0>        -0.9391
     24 N2         -9.0464   -1.9509   -1.1293 N.pl3     1 <0>        -0.9916
     25 C17        -8.2464   -2.7615   -1.9193 C.2       1 <0>         0.3168
     26 N3         -7.0895   -3.3237   -1.6253 N.2       1 <0>        -0.5451
     27 C18        -6.4546   -4.0783   -2.5026 C.2       1 <0>         0.0640
     28 C19        -7.0121   -4.2572   -3.7239 C.2       1 <0>        -0.2279
     29 S2         -8.5057   -3.2917   -3.5524 S.3       1 <0>         0.0782
     30 H1         -3.7552   -0.9914    0.1949 H         1 <0>         0.1373
     31 H2         -5.8162   -2.3255    0.3654 H         1 <0>         0.1549
     32 H3         -8.1496    1.2421    0.2162 H         1 <0>         0.1439
     33 H4         -6.0943    2.5863    0.0558 H         1 <0>         0.1502
     34 H5         -2.8589    1.3023   -0.4612 H         1 <0>         0.4168
     35 H6         -1.4299    3.1919    0.1295 H         1 <0>         0.1364
     36 H7         -3.1127    5.2306    1.6840 H         1 <0>         0.1422
     37 H8          0.1066    4.0691    0.0981 H         1 <0>         0.1445
     38 H9          2.2131    5.3305    0.0930 H         1 <0>         0.1421
     39 H10        -1.7796    7.2440    2.2904 H         1 <0>         0.1437
     40 H11         1.6190    9.7085    0.7741 H         1 <0>         0.0887
     41 H12         2.4787    9.6878    2.3468 H         1 <0>         0.1361
     42 H13        -9.8793   -1.6002   -1.4818 H         1 <0>         0.4431
     43 H14        -5.5098   -4.5387   -2.2539 H         1 <0>         0.1788
     44 H15        -6.6527   -4.8263   -4.5685 H         1 <0>         0.2017
@<TRIPOS>BOND
     1    1    6 ar
     2    1    2 ar
     3    1   30 1
     4    2    3 ar
     5    2   31 1
     6    3    4 ar
     7    3   21 1
     8    4    5 ar
     9    4   32 1
    10    5    6 ar
    11    5   33 1
    12    6    7 1
    13    7    8 am
    14    7   34 1
    15    8    9 2
    16    8   10 1
    17   10   11 2
    18   10   35 1
    19   11   12 1
    20   11   36 1
    21   12   17 ar
    22   12   13 ar
    23   13   14 ar
    24   13   37 1
    25   14   15 ar
    26   14   38 1
    27   15   20 1
    28   15   16 ar
    29   16   17 ar
    30   16   18 1
    31   17   39 1
    32   18   19 1
    33   19   20 1
    34   19   40 1
    35   19   41 1
    36   21   22 2
    37   21   23 2
    38   21   24 1
    39   24   25 1
    40   24   42 1
    41   25   29 1
    42   25   26 2
    43   26   27 1
    44   27   28 2
    45   27   43 1
    46   28   29 1
    47   28   44 1
@<TRIPOS>MOLECULE
ZINC09522039
   49    52     0     0     0
SMALL
USER_CHARGES
methyl [2-(2-benzo[1,3]dioxol-5-ylacetyl)amino-4,5,6,7-tetrahydrobenzothiophen-3-yl]carbonylaminoformate
@<TRIPOS>ATOM
      1 C1         12.6879    1.0191    4.9875 C.3       1 <0>         0.0529
      2 O1         12.0116    0.9079    3.7074 O.3       1 <0>        -0.3650
      3 C2         11.4960   -0.2945    3.3911 C.2       1 <0>         0.6382
      4 O2         11.6078   -1.2255    4.1633 O.2       1 <0>        -0.5054
      5 N1         10.8556   -0.4655    2.2176 N.am      1 <0>        -0.6568
      6 C3         10.3392   -1.6695    1.9009 C.2       1 <0>         0.5908
      7 O3         10.4512   -2.6021    2.6744 O.2       1 <0>        -0.4490
      8 C4          9.6431   -1.8554    0.6253 C.2       1 <0>        -0.2354
      9 C5         10.3572   -2.2736   -0.5693 C.2       1 <0>        -0.0632
     10 C6          9.5977   -2.4003   -1.6788 C.2       1 <0>        -0.2058
     11 S1          7.9588   -1.9817   -1.1560 S.3       1 <0>         0.2474
     12 C7          8.2756   -1.6421    0.5132 C.2       1 <0>         0.0818
     13 N2          7.3819   -1.2474    1.4966 N.am      1 <0>        -0.6241
     14 C8          6.0782   -1.0845    1.1962 C.2       1 <0>         0.5093
     15 O4          5.6869   -1.2831    0.0656 O.2       1 <0>        -0.4811
     16 C9          5.1066   -0.6554    2.2653 C.3       1 <0>        -0.0898
     17 C10         3.7246   -0.5476    1.6742 C.ar      1 <0>        -0.0689
     18 C11         2.8855   -1.6464    1.6768 C.ar      1 <0>        -0.0893
     19 C12         1.6171   -1.5526    1.1353 C.ar      1 <0>        -0.0976
     20 C13         1.1834   -0.3557    0.5885 C.ar      1 <0>         0.0386
     21 C14         2.0284    0.7513    0.5864 C.ar      1 <0>         0.0338
     22 C15         3.2983    0.6500    1.1309 C.ar      1 <0>        -0.0827
     23 O5          1.3764    1.7966   -0.0014 O.3       1 <0>        -0.3079
     24 C16        -0.0175    1.4357    0.0099 C.3       1 <0>         0.2130
     25 O6          0.0021   -0.0041    0.0020 O.3       1 <0>        -0.3077
     26 C17        10.0559   -2.8066   -3.0455 C.3       1 <0>        -0.0368
     27 C18        11.5869   -2.6988   -3.0944 C.3       1 <0>        -0.1145
     28 C19        12.1694   -3.3819   -1.8537 C.3       1 <0>        -0.1191
     29 C20        11.8547   -2.5526   -0.6074 C.3       1 <0>        -0.0644
     30 H1         13.5267    0.3237    5.0169 H         1 <0>         0.0682
     31 H2         13.0551    2.0371    5.1172 H         1 <0>         0.1097
     32 H3         11.9894    0.7798    5.7894 H         1 <0>         0.0679
     33 H4         10.7663    0.2779    1.6010 H         1 <0>         0.4222
     34 H5          7.6948   -1.0885    2.4009 H         1 <0>         0.4200
     35 H6          5.4083    0.3136    2.6628 H         1 <0>         0.1161
     36 H7          5.1016   -1.3921    3.0687 H         1 <0>         0.1187
     37 H8          3.2220   -2.5802    2.1025 H         1 <0>         0.1385
     38 H9          0.9638   -2.4126    1.1387 H         1 <0>         0.1388
     39 H10         3.9558    1.5068    1.1302 H         1 <0>         0.1347
     40 H11        -0.5191    1.8168   -0.8796 H         1 <0>         0.1336
     41 H12        -0.5019    1.8072    0.9129 H         1 <0>         0.0864
     42 H13         9.7537   -3.8350   -3.2435 H         1 <0>         0.0841
     43 H14         9.6166   -2.1448   -3.7919 H         1 <0>         0.0827
     44 H15        11.9595   -3.1923   -3.9920 H         1 <0>         0.0749
     45 H16        11.8790   -1.6487   -3.1069 H         1 <0>         0.0690
     46 H17        11.7320   -4.3747   -1.7480 H         1 <0>         0.0685
     47 H18        13.2500   -3.4722   -1.9638 H         1 <0>         0.0714
     48 H19        12.1457   -3.1080    0.2842 H         1 <0>         0.0752
     49 H20        12.4031   -1.6114   -0.6468 H         1 <0>         0.0781
@<TRIPOS>BOND
     1    1    2 1
     2    1   30 1
     3    1   31 1
     4    1   32 1
     5    2    3 1
     6    3    4 2
     7    3    5 am
     8    5    6 am
     9    5   33 1
    10    6    7 2
    11    6    8 1
    12    8   12 2
    13    8    9 1
    14    9   29 1
    15    9   10 2
    16   10   11 1
    17   10   26 1
    18   11   12 1
    19   12   13 1
    20   13   14 am
    21   13   34 1
    22   14   15 2
    23   14   16 1
    24   16   17 1
    25   16   35 1
    26   16   36 1
    27   17   22 ar
    28   17   18 ar
    29   18   19 ar
    30   18   37 1
    31   19   20 ar
    32   19   38 1
    33   20   25 1
    34   20   21 ar
    35   21   22 ar
    36   21   23 1
    37   22   39 1
    38   23   24 1
    39   24   25 1
    40   24   40 1
    41   24   41 1
    42   26   27 1
    43   26   42 1
    44   26   43 1
    45   27   28 1
    46   27   44 1
    47   27   45 1
    48   28   29 1
    49   28   46 1
    50   28   47 1
    51   29   48 1
    52   29   49 1
@<TRIPOS>MOLECULE
ZINC20617126
   54    56     0     0     0
SMALL
USER_CHARGES
N,N'-bis(2-methoxy-5-methyl-phenyl)-1-methyl-pyrazole-3,4-dicarboxamide
@<TRIPOS>ATOM
      1 C1          3.5082    1.9040   -1.2661 C.3       1 <0>        -0.1124
      2 C2          2.2974    1.2805   -0.6210 C.ar      1 <0>        -0.1011
      3 C3          2.3920    0.0278   -0.0432 C.ar      1 <0>        -0.0986
      4 C4          1.2847   -0.5494    0.5501 C.ar      1 <0>        -0.1874
      5 C5          0.0759    0.1275    0.5675 C.ar      1 <0>         0.0926
      6 C6         -0.0200    1.3898   -0.0140 C.ar      1 <0>         0.1334
      7 C7          1.0955    1.9625   -0.6075 C.ar      1 <0>        -0.0877
      8 N1         -1.2408    2.0763   -0.0045 N.am      1 <0>        -0.6767
      9 C8         -1.2580    3.4190    0.1113 C.2       1 <0>         0.5809
     10 O1         -0.2135    4.0420    0.1205 O.2       1 <0>        -0.4746
     11 C9         -2.5427    4.1324    0.2267 C.2       1 <0>        -0.1985
     12 C10        -3.8054    3.5967    0.2281 C.2       1 <0>         0.0346
     13 N2         -4.6696    4.6166    0.3574 N.pl3     1 <0>        -0.2773
     14 N3         -4.0653    5.7451    0.4289 N.2       1 <0>        -0.2542
     15 C11        -2.7616    5.5814    0.3602 C.2       1 <0>         0.0411
     16 C12        -1.7291    6.6361    0.4074 C.2       1 <0>         0.5907
     17 O2         -0.5525    6.3389    0.3327 O.2       1 <0>        -0.4644
     18 N4         -2.0910    7.9282    0.5335 N.am      1 <0>        -0.6668
     19 C13        -1.1223    8.9370    0.4610 C.ar      1 <0>         0.1376
     20 C14         0.0639    8.7144   -0.2232 C.ar      1 <0>        -0.1004
     21 C15         1.0181    9.7116   -0.2936 C.ar      1 <0>        -0.0974
     22 C16         0.7940   10.9321    0.3165 C.ar      1 <0>        -0.1031
     23 C17        -0.3856   11.1613    1.0001 C.ar      1 <0>        -0.1836
     24 C18        -1.3496   10.1688    1.0710 C.ar      1 <0>         0.0888
     25 O3         -2.5127   10.3947    1.7381 O.3       1 <0>        -0.3209
     26 C19        -2.6769   11.6809    2.3387 C.3       1 <0>         0.0271
     27 C20         2.3059    9.4684   -1.0376 C.3       1 <0>        -0.1119
     28 C21        -6.1254    4.4595    0.4041 C.3       1 <0>         0.0745
     29 O4         -1.0142   -0.4391    1.1503 O.3       1 <0>        -0.3204
     30 C22        -0.8416   -1.7354    1.7264 C.3       1 <0>         0.0262
     31 H1          4.3639    1.2183   -1.1793 H         1 <0>         0.0643
     32 H2          3.7453    2.8521   -0.7612 H         1 <0>         0.0713
     33 H3          3.2991    2.0967   -2.3287 H         1 <0>         0.0685
     34 H4          3.3334   -0.5013   -0.0558 H         1 <0>         0.1248
     35 H5          1.3618   -1.5282    0.9998 H         1 <0>         0.1304
     36 H6          1.0245    2.9408   -1.0595 H         1 <0>         0.1481
     37 H7         -2.1855    1.5196   -0.0915 H         1 <0>         0.4287
     38 H8         -4.0574    2.5499    0.1435 H         1 <0>         0.1932
     39 H9         -3.1473    8.1904    0.6934 H         1 <0>         0.4424
     40 H10         0.2415    7.7623   -0.7009 H         1 <0>         0.1534
     41 H11         1.5427   11.7084    0.2591 H         1 <0>         0.1247
     42 H12        -0.5573   12.1156    1.4757 H         1 <0>         0.1308
     43 H13        -3.6540   11.7286    2.8417 H         1 <0>         0.1011
     44 H14        -2.6263   12.4576    1.5615 H         1 <0>         0.0562
     45 H15        -1.8768   11.8465    3.0752 H         1 <0>         0.0560
     46 H16         2.9354   10.3689   -0.9850 H         1 <0>         0.0642
     47 H17         2.0834    9.2375   -2.0898 H         1 <0>         0.0683
     48 H18         2.8388    8.6213   -0.5810 H         1 <0>         0.0712
     49 H19        -6.5974    5.4470    0.5140 H         1 <0>         0.1073
     50 H20        -6.3984    3.8252    1.2603 H         1 <0>         0.0961
     51 H21        -6.4734    3.9883   -0.5270 H         1 <0>         0.0959
     52 H22        -1.7942   -2.0737    2.1601 H         1 <0>         0.1009
     53 H23        -0.0763   -1.6872    2.5151 H         1 <0>         0.0561
     54 H24        -0.5214   -2.4431    0.9475 H         1 <0>         0.0562
@<TRIPOS>BOND
     1    1    2 1
     2    1   31 1
     3    1   32 1
     4    1   33 1
     5    2    7 ar
     6    2    3 ar
     7    3    4 ar
     8    3   34 1
     9    4    5 ar
    10    4   35 1
    11    5    6 ar
    12    5   29 1
    13    6    7 ar
    14    6    8 1
    15    7   36 1
    16    8    9 am
    17    8   37 1
    18    9   10 2
    19    9   11 1
    20   11   15 1
    21   11   12 2
    22   12   13 1
    23   12   38 1
    24   13   14 1
    25   13   28 1
    26   14   15 2
    27   15   16 1
    28   16   17 2
    29   16   18 am
    30   18   19 1
    31   18   39 1
    32   19   24 ar
    33   19   20 ar
    34   20   21 ar
    35   20   40 1
    36   21   22 ar
    37   21   27 1
    38   22   23 ar
    39   22   41 1
    40   23   24 ar
    41   23   42 1
    42   24   25 1
    43   25   26 1
    44   26   43 1
    45   26   44 1
    46   26   45 1
    47   27   46 1
    48   27   47 1
    49   27   48 1
    50   28   49 1
    51   28   50 1
    52   28   51 1
    53   29   30 1
    54   30   52 1
    55   30   53 1
    56   30   54 1
@<TRIPOS>MOLECULE
ZINC22302222
   59    61     0     0     0
SMALL
USER_CHARGES

@<TRIPOS>ATOM
      1 C1         -0.7111    1.5061   -0.5937 C.3       1 <0>        -0.1477
      2 C2         -0.5915   -0.0178   -0.5265 C.3       1 <0>        -0.0916
      3 H1          0.0430   -0.3688   -1.3403 H         1 <0>         0.0755
      4 C3         -1.9819   -0.6452   -0.6562 C.3       1 <0>        -0.1103
      5 C4         -1.8662   -2.1630   -0.5683 C.3       1 <0>         0.1313
      6 C5         -1.2321   -2.5801    0.7541 C.3       1 <0>        -0.1049
      7 C6          0.1556   -1.9457    0.8787 C.3       1 <0>        -0.0603
      8 C7          0.0264   -0.4225    0.8134 C.3       1 <0>        -0.1093
      9 C8          0.7823   -2.3478    2.2153 C.3       1 <0>        -0.1415
     10 C9          1.0437   -2.4318   -0.2684 C.3       1 <0>        -0.1616
     11 C10        -3.2243   -2.8062   -0.7287 C.2       1 <0>         0.5365
     12 O1         -4.1939   -2.6612   -0.0154 O.2       1 <0>        -0.4535
     13 N1         -3.1307   -3.5751   -1.8333 N.am      1 <0>        -0.5682
     14 C11        -1.9119   -3.5030   -2.3823 C.2       1 <0>         0.7040
     15 O2         -1.5856   -4.1068   -3.3853 O.2       1 <0>        -0.5377
     16 N2         -1.0882   -2.6856   -1.6989 N.am      1 <0>        -0.7156
     17 C12        -4.2267   -4.3885   -2.3657 C.3       1 <0>         0.1299
     18 C13        -5.0276   -3.5719   -3.3468 C.2       1 <0>         0.4538
     19 O3         -4.7150   -2.4278   -3.5777 O.2       1 <0>        -0.4914
     20 O4         -6.0883   -4.1155   -3.9642 O.3       1 <0>        -0.3179
     21 C14        -6.8014   -3.2838   -4.8817 C.3       1 <0>         0.0724
     22 H2         -6.7241   -2.2437   -4.5649 H         1 <0>         0.1156
     23 C15        -6.2016   -3.4368   -6.2809 C.3       1 <0>        -0.1702
     24 C16        -8.2512   -3.6941   -4.9091 C.2       1 <0>         0.5183
     25 O5         -8.6359   -4.6087   -4.2116 O.2       1 <0>        -0.4919
     26 N3         -9.1204   -3.0447   -5.7087 N.am      1 <0>        -0.6687
     27 C17       -10.4844   -3.3519   -5.6548 C.ar      1 <0>         0.1428
     28 C18       -11.2547   -3.3041   -6.8093 C.ar      1 <0>        -0.1424
     29 C19       -12.6008   -3.6078   -6.7527 C.ar      1 <0>        -0.1004
     30 C20       -13.1817   -3.9592   -5.5481 C.ar      1 <0>        -0.1317
     31 C21       -12.4176   -4.0073   -4.3965 C.ar      1 <0>        -0.0996
     32 C22       -11.0697   -3.7107   -4.4476 C.ar      1 <0>        -0.1200
     33 H3          0.2789    1.9527   -0.5010 H         1 <0>         0.0599
     34 H4         -1.1517    1.7942   -1.5482 H         1 <0>         0.0570
     35 H5         -1.3457    1.8570    0.2201 H         1 <0>         0.0586
     36 H6         -2.6207   -0.2824    0.1491 H         1 <0>         0.0912
     37 H7         -2.4168   -0.3691   -1.6169 H         1 <0>         0.0780
     38 H8         -1.8601   -2.2451    1.5796 H         1 <0>         0.0924
     39 H9         -1.1393   -3.6657    0.7859 H         1 <0>         0.0777
     40 H10         1.0133    0.0302    0.9096 H         1 <0>         0.0718
     41 H11        -0.6120   -0.0773    1.6267 H         1 <0>         0.0711
     42 H12         0.8736   -3.4330    2.2619 H         1 <0>         0.0581
     43 H13         1.7703   -1.8960    2.3038 H         1 <0>         0.0609
     44 H14         0.1497   -2.0009    3.0322 H         1 <0>         0.0590
     45 H15         0.9091   -1.7816   -1.1328 H         1 <0>         0.0621
     46 H16         2.0874   -2.4081    0.0450 H         1 <0>         0.0663
     47 H17         0.7674   -3.4521   -0.5346 H         1 <0>         0.0656
     48 H18        -0.1638   -2.4825   -1.9113 H         1 <0>         0.4436
     49 H19        -3.8176   -5.2639   -2.8701 H         1 <0>         0.1461
     50 H20        -4.8718   -4.7090   -1.5476 H         1 <0>         0.1440
     51 H21        -6.7456   -2.8024   -6.9807 H         1 <0>         0.0824
     52 H22        -5.1530   -3.1400   -6.2611 H         1 <0>         0.0802
     53 H23        -6.2790   -4.4768   -6.5977 H         1 <0>         0.0784
     54 H24        -8.8003   -2.3644   -6.3216 H         1 <0>         0.4127
     55 H25       -10.8016   -3.0294   -7.7504 H         1 <0>         0.1266
     56 H26       -13.2004   -3.5705   -7.6502 H         1 <0>         0.1280
     57 H27       -14.2346   -4.1963   -5.5064 H         1 <0>         0.1252
     58 H28       -12.8744   -4.2817   -3.4572 H         1 <0>         0.1274
     59 H29       -10.4724   -3.7534   -3.5488 H         1 <0>         0.1325
@<TRIPOS>BOND
     1    1    2 1
     2    1   33 1
     3    1   34 1
     4    1   35 1
     5    2    3 1
     6    2    8 1
     7    2    4 1
     8    4    5 1
     9    4   36 1
    10    4   37 1
    11    5   16 1
    12    5    6 1
    13    5   11 1
    14    6    7 1
    15    6   38 1
    16    6   39 1
    17    7    8 1
    18    7    9 1
    19    7   10 1
    20    8   40 1
    21    8   41 1
    22    9   42 1
    23    9   43 1
    24    9   44 1
    25   10   45 1
    26   10   46 1
    27   10   47 1
    28   11   12 2
    29   11   13 am
    30   13   14 am
    31   13   17 1
    32   14   15 2
    33   14   16 am
    34   16   48 1
    35   17   18 1
    36   17   49 1
    37   17   50 1
    38   18   19 2
    39   18   20 1
    40   20   21 1
    41   21   22 1
    42   21   23 1
    43   21   24 1
    44   23   51 1
    45   23   52 1
    46   23   53 1
    47   24   25 2
    48   24   26 am
    49   26   27 1
    50   26   54 1
    51   27   32 ar
    52   27   28 ar
    53   28   29 ar
    54   28   55 1
    55   29   30 ar
    56   29   56 1
    57   30   31 ar
    58   30   57 1
    59   31   32 ar
    60   31   58 1
    61   32   59 1
@<TRIPOS>MOLECULE
ZINC66660275
   59    61     0     0     0
SMALL
USER_CHARGES

@<TRIPOS>ATOM
      1 C1         -0.0184    1.5028    0.0103 C.3       1 <0>        -0.1110
      2 C2          0.0021   -0.0041    0.0020 C.ar      1 <0>         0.2160
      3 C3          0.0059   -0.6992   -1.1973 C.ar      1 <0>        -0.2500
      4 C4          0.0249   -2.0848   -1.1592 C.ar      1 <0>         0.2149
      5 N1          0.0386   -2.6974    0.0130 N.ar      1 <0>        -0.5134
      6 C5          0.0345   -2.0031    1.1397 C.ar      1 <0>         0.5760
      7 N2          0.0220   -0.6797    1.1390 N.ar      1 <0>        -0.5683
      8 N3          0.0493   -2.6822    2.3569 N.pl3     1 <0>        -0.3306
      9 C6          0.0419   -2.1126    3.5948 C.2       1 <0>         0.3292
     10 C7          0.0611   -3.1214    4.5075 C.2       1 <0>        -0.2609
     11 C8          0.0808   -4.3325    3.8086 C.2       1 <0>         0.1054
     12 N4          0.0685   -4.0726    2.5267 N.2       1 <0>        -0.2497
     13 C9          0.1066   -5.7060    4.4282 C.3       1 <0>        -0.0750
     14 N5          0.0194   -0.7474    3.8745 N.am      1 <0>        -0.6346
     15 C10         0.0144   -0.3215    5.1532 C.2       1 <0>         0.5166
     16 O1          0.0295   -1.1263    6.0605 O.2       1 <0>        -0.5014
     17 C11        -0.0098    1.1546    5.4556 C.3       1 <0>         0.1352
     18 H1         -0.9081    1.5987    5.0267 H         1 <0>         0.1212
     19 C12         1.2274    1.8198    4.8493 C.3       1 <0>        -0.1631
     20 N6         -0.0107    1.3558    6.9068 N.am      1 <0>        -0.7180
     21 C13        -0.5222    2.4878    7.4298 C.2       1 <0>         0.5198
     22 O2         -0.9817    3.3398    6.6992 O.2       1 <0>        -0.5315
     23 C14        -0.5231    2.6948    8.9225 C.3       1 <0>        -0.1371
     24 C15        -1.1550    4.0493    9.2492 C.3       1 <0>        -0.0708
     25 C16        -0.2789    5.1700    8.6857 C.3       1 <0>        -0.1195
     26 C17        -0.9108    6.5246    9.0124 C.3       1 <0>        -0.1178
     27 C18        -1.0255    6.6811   10.5300 C.3       1 <0>        -0.1213
     28 C19        -1.9017    5.5605   11.0935 C.3       1 <0>        -0.1192
     29 C20        -1.2698    4.2059   10.7668 C.3       1 <0>        -0.1156
     30 C21         0.0293   -2.8831   -2.4373 C.3       1 <0>        -0.1099
     31 H2          1.0042    1.8801    0.0026 H         1 <0>         0.0933
     32 H3         -0.5455    1.8639   -0.8728 H         1 <0>         0.0906
     33 H4         -0.5286    1.8543    0.9071 H         1 <0>         0.0856
     34 H5         -0.0059   -0.1730   -2.1404 H         1 <0>         0.1574
     35 H6          0.0612   -3.0071    5.5814 H         1 <0>         0.1855
     36 H7         -0.9147   -6.0553    4.5801 H         1 <0>         0.0848
     37 H8          0.6310   -6.3940    3.7649 H         1 <0>         0.0788
     38 H9          0.6221   -5.6623    5.3875 H         1 <0>         0.0852
     39 H10         0.0074   -0.1038    3.1489 H         1 <0>         0.4280
     40 H11         1.2099    2.8875    5.0681 H         1 <0>         0.0823
     41 H12         2.1257    1.3758    5.2783 H         1 <0>         0.0677
     42 H13         1.2281    1.6701    3.7696 H         1 <0>         0.0719
     43 H14         0.3568    0.6744    7.4911 H         1 <0>         0.4117
     44 H15        -1.0985    1.9011    9.3990 H         1 <0>         0.0968
     45 H16         0.5018    2.6731    9.2930 H         1 <0>         0.0960
     46 H17        -2.1476    4.1045    8.8021 H         1 <0>         0.0785
     47 H18         0.7137    5.1148    9.1328 H         1 <0>         0.0545
     48 H19        -0.1971    5.0585    7.6045 H         1 <0>         0.0801
     49 H20        -0.2866    7.3229    8.6110 H         1 <0>         0.0591
     50 H21        -1.9033    6.5797    8.5653 H         1 <0>         0.0613
     51 H22        -0.0330    6.6259   10.9771 H         1 <0>         0.0601
     52 H23        -1.4757    7.6461   10.7627 H         1 <0>         0.0593
     53 H24        -1.9835    5.6720   12.1747 H         1 <0>         0.0614
     54 H25        -2.8943    5.6156   10.6464 H         1 <0>         0.0616
     55 H26        -1.8940    3.4075   11.1682 H         1 <0>         0.0622
     56 H27        -0.2772    4.1507   11.2139 H         1 <0>         0.0628
     57 H28         1.0579   -3.0617   -2.7506 H         1 <0>         0.0921
     58 H29        -0.4709   -3.8373   -2.2714 H         1 <0>         0.0881
     59 H30        -0.4961   -2.3278   -3.2143 H         1 <0>         0.0876
@<TRIPOS>BOND
     1    1    2 1
     2    1   31 1
     3    1   32 1
     4    1   33 1
     5    2    7 ar
     6    2    3 ar
     7    3    4 ar
     8    3   34 1
     9    4    5 ar
    10    4   30 1
    11    5    6 ar
    12    6    7 ar
    13    6    8 1
    14    8   12 1
    15    8    9 1
    16    9   10 2
    17    9   14 1
    18   10   11 1
    19   10   35 1
    20   11   12 2
    21   11   13 1
    22   13   36 1
    23   13   37 1
    24   13   38 1
    25   14   15 am
    26   14   39 1
    27   15   16 2
    28   15   17 1
    29   17   18 1
    30   17   19 1
    31   17   20 1
    32   19   40 1
    33   19   41 1
    34   19   42 1
    35   20   21 am
    36   20   43 1
    37   21   22 2
    38   21   23 1
    39   23   24 1
    40   23   44 1
    41   23   45 1
    42   24   29 1
    43   24   25 1
    44   24   46 1
    45   25   26 1
    46   25   47 1
    47   25   48 1
    48   26   27 1
    49   26   49 1
    50   26   50 1
    51   27   28 1
    52   27   51 1
    53   27   52 1
    54   28   29 1
    55   28   53 1
    56   28   54 1
    57   29   55 1
    58   29   56 1
    59   30   57 1
    60   30   58 1
    61   30   59 1
@<TRIPOS>MOLECULE
ZINC14141284
   46    49     0     0     0
SMALL
USER_CHARGES
N-[2-(4-methylphenoxy)phenyl]-3-oxo-4H-1,4-benzoxazine-6-carboxamide
@<TRIPOS>ATOM
      1 C1         12.3934   -2.1496   -0.3121 C.3       1 <0>        -0.1181
      2 C2         11.0311   -1.5054   -0.3009 C.ar      1 <0>        -0.0847
      3 C3         10.6269   -0.7648    0.7946 C.ar      1 <0>        -0.1043
      4 C4          9.3789   -0.1728    0.8073 C.ar      1 <0>        -0.1342
      5 C5          8.5305   -0.3220   -0.2806 C.ar      1 <0>         0.0809
      6 C6          8.9366   -1.0701   -1.3765 C.ar      1 <0>        -0.1161
      7 C7         10.1877   -1.6556   -1.3862 C.ar      1 <0>        -0.1042
      8 O1          7.3022    0.2588   -0.2705 O.3       1 <0>        -0.2606
      9 C8          7.2383    1.6169   -0.2665 C.ar      1 <0>         0.0912
     10 C9          8.3976    2.3672   -0.3831 C.ar      1 <0>        -0.1737
     11 C10         8.3309    3.7479   -0.3790 C.ar      1 <0>        -0.0979
     12 C11         7.1092    4.3847   -0.2595 C.ar      1 <0>        -0.1271
     13 C12         5.9479    3.6440   -0.1480 C.ar      1 <0>        -0.0972
     14 C13         6.0071    2.2579   -0.1456 C.ar      1 <0>         0.1281
     15 N1          4.8322    1.5051   -0.0279 N.am      1 <0>        -0.6569
     16 C14         3.7460    2.0395    0.5647 C.2       1 <0>         0.5639
     17 O2          3.8164    3.1342    1.0894 O.2       1 <0>        -0.5142
     18 C15         2.4712    1.2960    0.5769 C.ar      1 <0>        -0.1293
     19 C16         2.3889    0.0379   -0.0257 C.ar      1 <0>        -0.0717
     20 C17         1.1989   -0.6575   -0.0150 C.ar      1 <0>        -0.1115
     21 C18         0.0796   -0.1104    0.5947 C.ar      1 <0>         0.1090
     22 C19         0.1550    1.1467    1.1988 C.ar      1 <0>         0.0867
     23 C20         1.3442    1.8486    1.1920 C.ar      1 <0>        -0.0585
     24 N2         -0.9897    1.6859    1.8041 N.am      1 <0>        -0.6601
     25 C21        -2.0295    0.8669    2.0804 C.2       1 <0>         0.4908
     26 O3         -3.0399    1.3140    2.5807 O.2       1 <0>        -0.5024
     27 C22        -1.9299   -0.6028    1.7594 C.3       1 <0>         0.0498
     28 O4         -1.0972   -0.7889    0.6121 O.3       1 <0>        -0.2968
     29 H1         12.3250   -3.1517    0.1112 H         1 <0>         0.0742
     30 H2         12.7571   -2.2125   -1.3377 H         1 <0>         0.0693
     31 H3         13.0835   -1.5505    0.2820 H         1 <0>         0.0690
     32 H4         11.2875   -0.6493    1.6412 H         1 <0>         0.1302
     33 H5          9.0638    0.4058    1.6630 H         1 <0>         0.1302
     34 H6          8.2766   -1.1911   -2.2228 H         1 <0>         0.1330
     35 H7         10.5058   -2.2346   -2.2406 H         1 <0>         0.1322
     36 H8          9.3533    1.8731   -0.4770 H         1 <0>         0.1341
     37 H9          9.2355    4.3310   -0.4696 H         1 <0>         0.1285
     38 H10         7.0622    5.4637   -0.2574 H         1 <0>         0.1307
     39 H11         4.9947    4.1441   -0.0590 H         1 <0>         0.1545
     40 H12         4.8000    0.5991   -0.3729 H         1 <0>         0.4152
     41 H13         3.2592   -0.3901   -0.5010 H         1 <0>         0.1396
     42 H14         1.1378   -1.6293   -0.4821 H         1 <0>         0.1509
     43 H15         1.4031    2.8205    1.6593 H         1 <0>         0.1501
     44 H16        -1.0311    2.6290    2.0273 H         1 <0>         0.4202
     45 H17        -2.9249   -0.9973    1.5534 H         1 <0>         0.1515
     46 H18        -1.4994   -1.1315    2.6098 H         1 <0>         0.1055
@<TRIPOS>BOND
     1    1    2 1
     2    1   29 1
     3    1   30 1
     4    1   31 1
     5    2    7 ar
     6    2    3 ar
     7    3    4 ar
     8    3   32 1
     9    4    5 ar
    10    4   33 1
    11    5    6 ar
    12    5    8 1
    13    6    7 ar
    14    6   34 1
    15    7   35 1
    16    8    9 1
    17    9   14 ar
    18    9   10 ar
    19   10   11 ar
    20   10   36 1
    21   11   12 ar
    22   11   37 1
    23   12   13 ar
    24   12   38 1
    25   13   14 ar
    26   13   39 1
    27   14   15 1
    28   15   16 am
    29   15   40 1
    30   16   17 2
    31   16   18 1
    32   18   23 ar
    33   18   19 ar
    34   19   20 ar
    35   19   41 1
    36   20   21 ar
    37   20   42 1
    38   21   28 1
    39   21   22 ar
    40   22   23 ar
    41   22   24 1
    42   23   43 1
    43   24   25 am
    44   24   44 1
    45   25   26 2
    46   25   27 1
    47   27   28 1
    48   27   45 1
    49   27   46 1
@<TRIPOS>MOLECULE
ZINC26918326
   46    50     0     0     0
SMALL
USER_CHARGES
1-(4-fluorophenyl)-N-(1H-indazol-7-yl)-4,5,6,7-tetrahydroindazole-3-carboxamide
@<TRIPOS>ATOM
      1 C1         -1.1139    1.7620   -0.7231 C.ar      1 <0>        -0.1341
      2 C2         -0.0157    1.0722   -0.2998 C.ar      1 <0>        -0.0614
      3 C3          1.0968    1.7641    0.1990 C.ar      1 <0>        -0.1614
      4 C4          2.3566    1.3541    0.6990 C.2       1 <0>         0.0698
      5 N1          3.0347    2.4120    1.0381 N.2       1 <0>        -0.2589
      6 N2          2.2754    3.5613    0.7862 N.pl3     1 <0>        -0.5171
      7 H1          2.6898    4.5548    1.0124 H         1 <0>         0.4678
      8 C5          1.0690    3.1686    0.2645 C.ar      1 <0>         0.1187
      9 C6         -0.0681    3.8569   -0.1689 C.ar      1 <0>         0.1297
     10 C7         -1.1509    3.1485   -0.6563 C.ar      1 <0>        -0.0962
     11 N3         -0.1100    5.2540   -0.1102 N.am      1 <0>        -0.6676
     12 C8         -1.2958    5.8942   -0.1337 C.2       1 <0>         0.6099
     13 O1         -2.3312    5.2573   -0.1059 O.2       1 <0>        -0.5044
     14 C9         -1.3375    7.3687   -0.1933 C.2       1 <0>        -0.0023
     15 C10        -2.4889    8.1737   -0.2292 C.2       1 <0>        -0.1306
     16 C11        -2.0475    9.4546   -0.2780 C.2       1 <0>         0.0185
     17 N4         -0.6971    9.4107   -0.2780 N.pl3     1 <0>        -0.2244
     18 N5         -0.2983    8.1863   -0.2290 N.2       1 <0>        -0.2636
     19 C12         0.1448   10.5303   -0.3241 C.ar      1 <0>         0.1135
     20 C13         1.2756   10.5171   -1.1299 C.ar      1 <0>        -0.0682
     21 C14         2.1012   11.6230   -1.1776 C.ar      1 <0>        -0.1367
     22 C15         1.8078   12.7408   -0.4143 C.ar      1 <0>         0.1142
     23 C16         0.6832   12.7539    0.3940 C.ar      1 <0>        -0.1345
     24 C17        -0.1477   11.6519    0.4404 C.ar      1 <0>        -0.0826
     25 F1          2.6197   13.8197   -0.4580 F         1 <0>        -0.1290
     26 C18        -2.9560   10.6557   -0.3296 C.3       1 <0>        -0.0514
     27 C19        -4.3604   10.1817   -0.7251 C.3       1 <0>        -0.1158
     28 C20        -4.7751    9.0047    0.1619 C.3       1 <0>        -0.1228
     29 C21        -3.9374    7.7704   -0.1992 C.3       1 <0>        -0.0462
     30 H2         -1.9659    1.2233   -1.1109 H         1 <0>         0.1310
     31 H3         -0.0016   -0.0064   -0.3530 H         1 <0>         0.1297
     32 H4          2.6980    0.3331    0.7849 H         1 <0>         0.1920
     33 H5         -2.0305    3.6778   -0.9917 H         1 <0>         0.1605
     34 H6          0.8248    5.8300   -0.0449 H         1 <0>         0.4351
     35 H7          1.5069    9.6441   -1.7221 H         1 <0>         0.1457
     36 H8          2.9786   11.6147   -1.8073 H         1 <0>         0.1503
     37 H9          0.4563   13.6263    0.9887 H         1 <0>         0.1513
     38 H10        -1.0243   11.6624    1.0711 H         1 <0>         0.1448
     39 H11        -2.9850   11.1363    0.6595 H         1 <0>         0.0856
     40 H12        -2.5761   11.3711   -1.0738 H         1 <0>         0.0828
     41 H13        -5.0761   11.0069   -0.5950 H         1 <0>         0.0780
     42 H14        -4.3567    9.8621   -1.7777 H         1 <0>         0.0709
     43 H15        -4.6082    9.2646    1.2176 H         1 <0>         0.0661
     44 H16        -5.8408    8.7834    0.0029 H         1 <0>         0.0752
     45 H17        -4.2328    7.3907   -1.1884 H         1 <0>         0.0804
     46 H18        -4.0831    6.9825    0.5544 H         1 <0>         0.0877
@<TRIPOS>BOND
     1    1   10 ar
     2    1    2 ar
     3    1   30 1
     4    2    3 ar
     5    2   31 1
     6    3    8 ar
     7    3    4 1
     8    4    5 2
     9    4   32 1
    10    5    6 1
    11    6    7 1
    12    6    8 1
    13    8    9 ar
    14    9   10 ar
    15    9   11 1
    16   10   33 1
    17   11   12 am
    18   11   34 1
    19   12   13 2
    20   12   14 1
    21   14   18 2
    22   14   15 1
    23   15   29 1
    24   15   16 2
    25   16   17 1
    26   16   26 1
    27   17   18 1
    28   17   19 1
    29   19   24 ar
    30   19   20 ar
    31   20   21 ar
    32   20   35 1
    33   21   22 ar
    34   21   36 1
    35   22   23 ar
    36   22   25 1
    37   23   24 ar
    38   23   37 1
    39   24   38 1
    40   26   27 1
    41   26   39 1
    42   26   40 1
    43   27   28 1
    44   27   41 1
    45   27   42 1
    46   28   29 1
    47   28   43 1
    48   28   44 1
    49   29   45 1
    50   29   46 1
@<TRIPOS>MOLECULE
ZINC36726132
   59    61     0     0     0
SMALL
USER_CHARGES

@<TRIPOS>ATOM
      1 C1          0.0263    1.5211    0.0087 C.3       1 <0>        -0.1463
      2 C2          0.0356   -0.0107    0.0015 C.3       1 <0>        -0.0967
      3 H1          0.5462   -0.3612   -0.8916 H         1 <0>         0.0908
      4 C3         -1.4058   -0.5245    0.0150 C.3       1 <0>        -0.1072
      5 C4         -1.4088   -2.0462   -0.0416 C.3       1 <0>         0.1398
      6 C5         -0.5656   -2.6776    1.0482 C.3       1 <0>        -0.1041
      7 C6          0.7951   -2.0422    1.2748 C.3       1 <0>        -0.0538
      8 C7          0.7431   -0.5188    1.2559 C.3       1 <0>        -0.1033
      9 C8          1.2997   -2.4779    2.6678 C.3       1 <0>        -0.1457
     10 C9          1.8081   -2.5462    0.2430 C.3       1 <0>        -0.1606
     11 C10        -1.0238   -2.5342   -1.4162 C.2       1 <0>         0.5397
     12 O1         -0.0330   -2.2606   -2.0595 O.2       1 <0>        -0.4501
     13 N1         -2.0341   -3.3363   -1.8172 N.am      1 <0>        -0.5660
     14 C11        -3.0504   -3.3157   -0.9481 C.2       1 <0>         0.7096
     15 O2         -4.0797   -3.9456   -1.0968 O.2       1 <0>        -0.5393
     16 N2         -2.8026   -2.5225    0.1082 N.am      1 <0>        -0.7229
     17 C12        -2.0156   -4.1276   -3.0496 C.3       1 <0>         0.1004
     18 C13        -1.4271   -5.4856   -2.7657 C.2       1 <0>         0.5012
     19 O3         -1.0593   -5.7648   -1.6442 O.2       1 <0>        -0.5032
     20 N3         -1.3094   -6.3898   -3.7582 N.am      1 <0>        -0.6646
     21 C14        -0.6592   -7.6063   -3.5229 C.ar      1 <0>         0.1484
     22 C15         0.2868   -7.7053   -2.5108 C.ar      1 <0>        -0.1263
     23 C16         0.9268   -8.9072   -2.2811 C.ar      1 <0>        -0.1034
     24 C17         0.6270  -10.0115   -3.0579 C.ar      1 <0>        -0.1328
     25 C18        -0.3139   -9.9161   -4.0665 C.ar      1 <0>        -0.0951
     26 C19        -0.9624   -8.7184   -4.2970 C.ar      1 <0>        -0.1046
     27 C20        -1.9931   -8.6171   -5.3917 C.3       1 <0>        -0.0533
     28 C21        -1.3777   -9.0753   -6.7155 C.3       1 <0>        -0.1460
     29 C22        -3.1892   -9.5078   -5.0501 C.3       1 <0>        -0.1438
     30 H2          1.0517    1.8907    0.0051 H         1 <0>         0.0596
     31 H3         -0.4944    1.8855   -0.8768 H         1 <0>         0.0555
     32 H4         -0.4851    1.8771    0.9031 H         1 <0>         0.0556
     33 H5         -1.9008   -0.1923    0.9281 H         1 <0>         0.0874
     34 H6         -1.9396   -0.1271   -0.8492 H         1 <0>         0.0743
     35 H7         -1.1321   -2.6470    1.9917 H         1 <0>         0.0847
     36 H8         -0.4226   -3.7424    0.8068 H         1 <0>         0.0761
     37 H9          1.7602   -0.1195    1.2833 H         1 <0>         0.0700
     38 H10         0.2067   -0.1633    2.1400 H         1 <0>         0.0650
     39 H11         1.3815   -3.5643    2.7011 H         1 <0>         0.0557
     40 H12         2.2774   -2.0340    2.8553 H         1 <0>         0.0598
     41 H13         0.5964   -2.1430    3.4302 H         1 <0>         0.0551
     42 H14         1.4634   -2.2913   -0.7592 H         1 <0>         0.0786
     43 H15         2.7754   -2.0777    0.4246 H         1 <0>         0.0567
     44 H16         1.9066   -3.6283    0.3290 H         1 <0>         0.0514
     45 H17        -3.4056   -2.2979    0.8313 H         1 <0>         0.4408
     46 H18        -3.0333   -4.2433   -3.4223 H         1 <0>         0.1315
     47 H19        -1.4098   -3.6185   -3.7992 H         1 <0>         0.1322
     48 H20        -1.6755   -6.1973   -4.6356 H         1 <0>         0.4120
     49 H21         0.5219   -6.8432   -1.9043 H         1 <0>         0.1424
     50 H22         1.6625   -8.9849   -1.4942 H         1 <0>         0.1247
     51 H23         1.1292  -10.9503   -2.8765 H         1 <0>         0.1233
     52 H24        -0.5455  -10.7801   -4.6716 H         1 <0>         0.1258
     53 H25        -2.3248   -7.5829   -5.4839 H         1 <0>         0.0687
     54 H26        -1.0459  -10.1095   -6.6233 H         1 <0>         0.0601
     55 H27        -2.1231   -9.0020   -7.5073 H         1 <0>         0.0602
     56 H28        -0.5255   -8.4407   -6.9589 H         1 <0>         0.0566
     57 H29        -3.6276   -9.1815   -4.1070 H         1 <0>         0.0558
     58 H30        -3.9347   -9.4346   -5.8419 H         1 <0>         0.0602
     59 H31        -2.8575  -10.5420   -4.9579 H         1 <0>         0.0594
@<TRIPOS>BOND
     1    1    2 1
     2    1   30 1
     3    1   31 1
     4    1   32 1
     5    2    3 1
     6    2    8 1
     7    2    4 1
     8    4    5 1
     9    4   33 1
    10    4   34 1
    11    5   16 1
    12    5    6 1
    13    5   11 1
    14    6    7 1
    15    6   35 1
    16    6   36 1
    17    7    8 1
    18    7    9 1
    19    7   10 1
    20    8   37 1
    21    8   38 1
    22    9   39 1
    23    9   40 1
    24    9   41 1
    25   10   42 1
    26   10   43 1
    27   10   44 1
    28   11   12 2
    29   11   13 am
    30   13   14 am
    31   13   17 1
    32   14   15 2
    33   14   16 am
    34   16   45 1
    35   17   18 1
    36   17   46 1
    37   17   47 1
    38   18   19 2
    39   18   20 am
    40   20   21 1
    41   20   48 1
    42   21   26 ar
    43   21   22 ar
    44   22   23 ar
    45   22   49 1
    46   23   24 ar
    47   23   50 1
    48   24   25 ar
    49   24   51 1
    50   25   26 ar
    51   25   52 1
    52   26   27 1
    53   27   28 1
    54   27   29 1
    55   27   53 1
    56   28   54 1
    57   28   55 1
    58   28   56 1
    59   29   57 1
    60   29   58 1
    61   29   59 1
@<TRIPOS>MOLECULE
ZINC18284110
   33    34     0     0     0
SMALL
USER_CHARGES

@<TRIPOS>ATOM
      1 C1         -0.0169    1.3914    0.0097 C.ar      1 <0>        -0.0482
      2 C2          1.1695    2.0951    0.0021 C.ar      1 <0>        -0.1083
      3 C3          2.3783    1.4200   -0.0130 C.ar      1 <0>        -0.0084
      4 C4          2.4039    0.0338   -0.0207 C.ar      1 <0>        -0.0454
      5 C5          1.2231   -0.6803   -0.0137 C.ar      1 <0>        -0.0570
      6 C6          0.0021   -0.0041    0.0020 C.ar      1 <0>        -0.1381
      7 C7         -1.2675   -0.7639    0.0105 C.2       1 <0>         0.4431
      8 C8         -1.2453   -2.1757    0.0028 C.2       1 <0>        -0.3474
      9 C9         -2.4060   -2.8703    0.0106 C.2       1 <0>         0.2096
     10 N1         -2.3846   -4.2354    0.0030 N.pl3     1 <0>        -0.6367
     11 C10        -3.5852   -4.9540    0.0111 C.ar      1 <0>         0.1448
     12 C11        -4.7989   -4.2811    0.0209 C.ar      1 <0>        -0.1001
     13 C12        -5.9831   -4.9931    0.0284 C.ar      1 <0>        -0.0166
     14 C13        -5.9627   -6.3758    0.0266 C.ar      1 <0>        -0.0674
     15 C14        -4.7576   -7.0534    0.0172 C.ar      1 <0>        -0.1033
     16 C15        -3.5656   -6.3474    0.0034 C.ar      1 <0>         0.1175
     17 O1         -2.3797   -7.0123   -0.0119 O.3       1 <0>        -0.4842
     18 N2         -7.2768   -4.2739    0.0389 N.pl3     1 <0>         0.0302
     19 O2         -7.2964   -3.0651    0.0410 O.2       1 <0>        -0.1490
     20 O3         -8.3138   -4.8954    0.0455 O.3       1 <0>        -0.1460
     21 O4         -2.3319   -0.1715    0.0243 O.2       1 <0>        -0.4736
     22 Cl1         3.9238   -0.8048   -0.0397 Cl        1 <0>        -0.0413
     23 Cl2         3.8672    2.3125   -0.0230 Cl        1 <0>        -0.0384
     24 H1         -0.9588    1.9194    0.0260 H         1 <0>         0.1516
     25 H2          1.1554    3.1750    0.0077 H         1 <0>         0.1507
     26 H3          1.2437   -1.7601   -0.0204 H         1 <0>         0.1500
     27 H4         -0.3017   -2.7009   -0.0094 H         1 <0>         0.1325
     28 H5         -3.3496   -2.3451    0.0227 H         1 <0>         0.1646
     29 H6         -4.8178   -3.2013    0.0231 H         1 <0>         0.1641
     30 H7         -6.8908   -6.9280    0.0328 H         1 <0>         0.1631
     31 H8         -4.7454   -8.1333    0.0165 H         1 <0>         0.1621
     32 H9         -2.0279   -7.2094    0.8670 H         1 <0>         0.4020
     33 H10        -1.5371   -4.7072   -0.0079 H         1 <0>         0.4236
@<TRIPOS>BOND
     1    1    6 ar
     2    1    2 ar
     3    1   24 1
     4    2    3 ar
     5    2   25 1
     6    3    4 ar
     7    3   23 1
     8    4    5 ar
     9    4   22 1
    10    5    6 ar
    11    5   26 1
    12    6    7 1
    13    7   21 2
    14    7    8 1
    15    8   27 1
    16    8    9 2
    17    9   28 1
    18    9   10 1
    19   10   11 1
    20   10   33 1
    21   11   16 ar
    22   11   12 ar
    23   12   13 ar
    24   12   29 1
    25   13   14 ar
    26   13   18 1
    27   14   15 ar
    28   14   30 1
    29   15   16 ar
    30   15   31 1
    31   16   17 1
    32   17   32 1
    33   18   19 2
    34   18   20 1
@<TRIPOS>MOLECULE
ZINC65119805
   41    43     0     0     0
SMALL
USER_CHARGES

@<TRIPOS>ATOM
      1 C1          0.9662    3.5869    1.8217 C.3       1 <0>        -0.0779
      2 C2          1.0405    2.1480    1.3800 C.2       1 <0>        -0.1709
      3 C3          1.2336    1.7063    0.1272 C.2       1 <0>         0.0777
      4 N1          1.2427    0.3381    0.1110 N.pl3     1 <0>        -0.5922
      5 H1          1.3659   -0.2090   -0.6804 H         1 <0>         0.4153
      6 C4          1.0508   -0.1464    1.3855 C.ar      1 <0>         0.1065
      7 C5          0.9221    0.9661    2.2373 C.ar      1 <0>        -0.1045
      8 C6          0.7217    0.7761    3.6056 C.ar      1 <0>        -0.0466
      9 C7          0.6550   -0.4915    4.1120 C.ar      1 <0>        -0.1391
     10 C8          0.7855   -1.5921    3.2766 C.ar      1 <0>        -0.0799
     11 C9          0.9746   -1.4275    1.9217 C.ar      1 <0>        -0.1296
     12 C10         0.4386   -0.6958    5.5893 C.3       1 <0>         0.1681
     13 N2         -0.9979   -0.7706    5.8667 N.am      1 <0>        -0.7128
     14 C11        -1.4318   -0.9519    7.1298 C.2       1 <0>         0.5546
     15 O1         -0.6311   -1.0532    8.0389 O.2       1 <0>        -0.4913
     16 C12        -2.8810   -1.0273    7.4096 C.ar      1 <0>        -0.0619
     17 C13        -3.7291    0.0020    6.9964 C.ar      1 <0>        -0.0760
     18 C14        -5.0803   -0.0740    7.2603 C.ar      1 <0>        -0.0617
     19 C15        -5.5967   -1.1687    7.9341 C.ar      1 <0>        -0.0242
     20 C16        -4.7603   -2.1925    8.3469 C.ar      1 <0>        -0.0505
     21 C17        -3.4080   -2.1307    8.0831 C.ar      1 <0>        -0.0003
     22 N3         -2.5164   -3.2288    8.5190 N.pl3     1 <0>         0.0254
     23 O2         -2.9504   -4.1223    9.2082 O.2       1 <0>        -0.1560
     24 O3         -1.3543   -3.2322    8.1859 O.3       1 <0>        -0.1107
     25 Cl1        -7.2990   -1.2573    8.2629 Cl        1 <0>        -0.0264
     26 C18         1.4132    2.5869   -1.0825 C.3       1 <0>        -0.0956
     27 H2          1.9650    3.9404    2.0778 H         1 <0>         0.0641
     28 H3          0.5619    4.1950    1.0125 H         1 <0>         0.0632
     29 H4          0.3180    3.6660    2.6944 H         1 <0>         0.0626
     30 H5          0.6200    1.6279    4.2619 H         1 <0>         0.1236
     31 H6          0.7313   -2.5876    3.6918 H         1 <0>         0.1288
     32 H7          1.0762   -2.2903    1.2801 H         1 <0>         0.1225
     33 H8          0.9178   -1.6236    5.9018 H         1 <0>         0.0845
     34 H9          0.8718    0.1398    6.1390 H         1 <0>         0.0798
     35 H10        -1.6368   -0.6897    5.1413 H         1 <0>         0.4025
     36 H11        -3.3276    0.8561    6.4713 H         1 <0>         0.1635
     37 H12        -5.7372    0.7217    6.9415 H         1 <0>         0.1618
     38 H13        -5.1686   -3.0433    8.8721 H         1 <0>         0.1704
     39 H14         2.4725    2.8045   -1.2194 H         1 <0>         0.0788
     40 H15         1.0305    2.0744   -1.9651 H         1 <0>         0.0683
     41 H16         0.8666    3.5188   -0.9379 H         1 <0>         0.0861
@<TRIPOS>BOND
     1    1    2 1
     2    1   27 1
     3    1   28 1
     4    1   29 1
     5    2    7 1
     6    2    3 2
     7    3    4 1
     8    3   26 1
     9    4    5 1
    10    4    6 1
    11    6   11 ar
    12    6    7 ar
    13    7    8 ar
    14    8    9 ar
    15    8   30 1
    16    9   10 ar
    17    9   12 1
    18   10   11 ar
    19   10   31 1
    20   11   32 1
    21   12   13 1
    22   12   33 1
    23   12   34 1
    24   13   14 am
    25   13   35 1
    26   14   15 2
    27   14   16 1
    28   16   21 ar
    29   16   17 ar
    30   17   18 ar
    31   17   36 1
    32   18   19 ar
    33   18   37 1
    34   19   20 ar
    35   19   25 1
    36   20   21 ar
    37   20   38 1
    38   21   22 1
    39   22   23 2
    40   22   24 1
    41   26   39 1
    42   26   40 1
    43   26   41 1
@<TRIPOS>MOLECULE
ZINC20304193
   37    37     0     0     0
SMALL
USER_CHARGES
(2R)-N-(methylcarbamoyl)-2-[(4-methylsulfonylphenyl)amino]propanamide
@<TRIPOS>ATOM
      1 C1         -2.5452   -0.0348    1.2632 C.3       1 <0>        -0.1691
      2 C2         -2.4820    0.8526    0.0185 C.3       1 <0>         0.1336
      3 H1         -2.5590    0.2515   -0.8995 H         1 <0>         0.1142
      4 C3         -1.1873    1.6238    0.0165 C.2       1 <0>         0.5197
      5 O1         -1.2037    2.8360    0.0232 O.2       1 <0>        -0.4631
      6 N1         -0.0111    0.9658    0.0074 N.am      1 <0>        -0.7011
      7 C4          1.1468    1.6555   -0.0000 C.2       1 <0>         0.6936
      8 O2          1.1303    2.8708    0.0067 O.2       1 <0>        -0.5336
      9 N2          2.3230    0.9976   -0.0148 N.am      1 <0>        -0.7514
     10 C5          3.5816    1.7473   -0.0228 C.3       1 <0>         0.1032
     11 N3         -3.6084    1.7894    0.0289 N.pl3     1 <0>        -0.7358
     12 C6         -4.8487    1.3959   -0.4786 C.ar      1 <0>         0.2767
     13 C7         -5.0145    0.1186   -0.9988 C.ar      1 <0>        -0.2266
     14 C8         -6.2436   -0.2689   -1.4954 C.ar      1 <0>         0.0262
     15 C9         -7.3057    0.6166   -1.4848 C.ar      1 <0>        -0.7189
     16 C10        -7.1427    1.8907   -0.9724 C.ar      1 <0>         0.0257
     17 C11        -5.9177    2.2828   -0.4695 C.ar      1 <0>        -0.2118
     18 S1         -8.8704    0.1202   -2.1250 S.o2      1 <0>         2.5061
     19 O3         -8.8895   -1.2933   -1.9803 O.2       1 <0>        -0.9444
     20 O4         -9.8158    0.9312   -1.4411 O.2       1 <0>        -0.9436
     21 C12        -8.8184    0.5677   -3.8822 C.3       1 <0>        -0.6559
     22 H2         -3.4903   -0.5977    1.2646 H         1 <0>         0.0806
     23 H3         -2.4913    0.5935    2.1645 H         1 <0>         0.0708
     24 H4         -1.6995   -0.7382    1.2554 H         1 <0>         0.0738
     25 H5          0.0038   -0.1341    0.0060 H         1 <0>         0.4345
     26 H6          2.3379   -0.1023   -0.0209 H         1 <0>         0.4211
     27 H7          4.4273    1.0439   -0.0347 H         1 <0>         0.0818
     28 H8          3.6399    2.3756    0.8782 H         1 <0>         0.0604
     29 H9          3.6227    2.3853   -0.9180 H         1 <0>         0.0603
     30 H10        -3.4773    2.8027    0.4364 H         1 <0>         0.4376
     31 H11        -4.1842   -0.5720   -1.0115 H         1 <0>         0.1295
     32 H12        -6.3743   -1.2632   -1.8963 H         1 <0>         0.1402
     33 H13        -7.9743    2.5797   -0.9653 H         1 <0>         0.1410
     34 H14        -5.7912    3.2779   -0.0691 H         1 <0>         0.1318
     35 H15        -9.7688    0.2878   -4.3601 H         1 <0>         0.1312
     36 H16        -7.9905    0.0342   -4.3721 H         1 <0>         0.1307
     37 H17        -8.6644    1.6525   -3.9799 H         1 <0>         0.1311
@<TRIPOS>BOND
     1    1    2 1
     2    1   22 1
     3    1   23 1
     4    1   24 1
     5    2    3 1
     6    2    4 1
     7    2   11 1
     8    4    5 2
     9    4    6 am
    10    6    7 am
    11    6   25 1
    12    7    8 2
    13    7    9 am
    14    9   10 1
    15    9   26 1
    16   10   27 1
    17   10   28 1
    18   10   29 1
    19   11   12 1
    20   11   30 1
    21   12   17 ar
    22   12   13 ar
    23   13   14 ar
    24   13   31 1
    25   14   15 ar
    26   14   32 1
    27   15   16 ar
    28   15   18 1
    29   16   17 ar
    30   16   33 1
    31   17   34 1
    32   18   19 2
    33   18   20 2
    34   18   21 1
    35   21   35 1
    36   21   36 1
    37   21   37 1
@<TRIPOS>MOLECULE
ZINC39657817
   54    56     0     0     0
SMALL
USER_CHARGES

@<TRIPOS>ATOM
      1 C1         -0.1569    1.3393    0.0858 C.3       1 <0>        -0.1746
      2 C2         -0.0302   -0.1616    0.0365 C.2       1 <0>         0.5388
      3 O1          0.0428   -0.7981    1.0663 O.2       1 <0>        -0.5414
      4 N1          0.0021   -0.7964   -1.1519 N.am      1 <0>        -0.6247
      5 C3         -0.0671   -0.1957   -2.5048 C.3       1 <0>         0.1092
      6 C4          0.9356   -1.0152   -3.3476 C.3       1 <0>        -0.1142
      7 H1          1.9044   -0.5163   -3.3759 H         1 <0>         0.1098
      8 C5          1.0495   -2.3648   -2.6193 C.3       1 <0>        -0.0710
      9 C6          0.1215   -2.2530   -1.4010 C.3       1 <0>         0.1071
     10 C7          2.4858   -2.5985   -2.1610 C.3       1 <0>        -0.1340
     11 C8          2.5855   -3.9715   -1.4902 C.3       1 <0>        -0.0099
     12 N2          2.1783   -5.0132   -2.4409 N.4       1 <0>        -0.5044
     13 C9          0.7677   -4.8350   -2.8055 C.3       1 <0>        -0.0071
     14 C10         0.5910   -3.4984   -3.5316 C.3       1 <0>        -0.1487
     15 C11         0.4076   -1.2133   -4.7451 C.2       1 <0>         0.5151
     16 O2         -0.7880   -1.2784   -4.9381 O.2       1 <0>        -0.5219
     17 N3          1.2640   -1.3183   -5.7805 N.am      1 <0>        -0.7196
     18 C12         0.7507   -1.5109   -7.1391 C.3       1 <0>         0.1444
     19 C13         0.4065   -0.1518   -7.7517 C.3       1 <0>        -0.1250
     20 C14        -0.1296   -0.3530   -9.1705 C.3       1 <0>        -0.0935
     21 C15         0.9357   -1.0426  -10.0252 C.3       1 <0>        -0.1555
     22 C16         1.2798   -2.4017   -9.4126 C.3       1 <0>        -0.0939
     23 C17         1.8159   -2.2006   -7.9938 C.3       1 <0>        -0.1179
     24 C18         0.4076   -1.2408  -11.4227 C.2       1 <0>         0.4936
     25 O3          1.1396   -1.0643  -12.3816 O.co2     1 <0>        -0.7002
     26 O4         -0.7515   -1.5775  -11.5943 O.co2     1 <0>        -0.6952
     27 H2          0.8363    1.7882    0.0790 H         1 <0>         0.0981
     28 H3         -0.7180    1.6852   -0.7823 H         1 <0>         0.0844
     29 H4         -0.6808    1.6299    0.9964 H         1 <0>         0.0997
     30 H5         -1.0735   -0.2916   -2.9122 H         1 <0>         0.1019
     31 H6          0.2319    0.8520   -2.4711 H         1 <0>         0.0945
     32 H7          0.5650   -2.7514   -0.5390 H         1 <0>         0.0865
     33 H8         -0.8547   -2.6813   -1.6286 H         1 <0>         0.0836
     34 H9          3.1526   -2.5651   -3.0225 H         1 <0>         0.0972
     35 H10         2.7711   -1.8241   -1.4490 H         1 <0>         0.1159
     36 H11         3.6142   -4.1484   -1.1763 H         1 <0>         0.1378
     37 H12         1.9306   -3.9986   -0.6193 H         1 <0>         0.1325
     38 H13         2.7492   -4.9512   -3.2706 H         1 <0>         0.4287
     39 H14         0.4565   -5.6483   -3.4611 H         1 <0>         0.1397
     40 H15         0.1559   -4.8418   -1.9034 H         1 <0>         0.1317
     41 H16        -0.4597   -3.3586   -3.7858 H         1 <0>         0.1286
     42 H17         1.1896   -3.4972   -4.4425 H         1 <0>         0.0997
     43 H18         2.2202   -1.2663   -5.6262 H         1 <0>         0.3961
     44 H19        -0.1450   -2.1312   -7.1045 H         1 <0>         0.0915
     45 H20        -0.3524    0.3395   -7.1428 H         1 <0>         0.0599
     46 H21         1.3021    0.4684   -7.7863 H         1 <0>         0.0585
     47 H22        -1.0253   -0.9732   -9.1359 H         1 <0>         0.0694
     48 H23        -0.3748    0.6152   -9.6069 H         1 <0>         0.0587
     49 H24         1.8313   -0.4224  -10.0598 H         1 <0>         0.0598
     50 H25         0.3842   -3.0220   -9.3780 H         1 <0>         0.0638
     51 H26         2.0387   -2.8930  -10.0215 H         1 <0>         0.0637
     52 H27         2.7116   -1.5803   -8.0283 H         1 <0>         0.0647
     53 H28         2.0611   -3.1688   -7.5573 H         1 <0>         0.0557
     54 H29         2.3028   -5.9205   -2.0174 H         1 <0>         0.4323
@<TRIPOS>BOND
     1    1    2 1
     2    1   27 1
     3    1   28 1
     4    1   29 1
     5    2    3 2
     6    2    4 am
     7    4    9 1
     8    4    5 1
     9    5    6 1
    10    5   30 1
    11    5   31 1
    12    6    7 1
    13    6    8 1
    14    6   15 1
    15    8   14 1
    16    8    9 1
    17    8   10 1
    18    9   32 1
    19    9   33 1
    20   10   11 1
    21   10   34 1
    22   10   35 1
    23   11   12 1
    24   11   36 1
    25   11   37 1
    26   12   13 1
    27   12   38 1
    28   12   54 1
    29   13   14 1
    30   13   39 1
    31   13   40 1
    32   14   41 1
    33   14   42 1
    34   15   16 2
    35   15   17 am
    36   17   18 1
    37   17   43 1
    38   18   23 1
    39   18   19 1
    40   18   44 1
    41   19   20 1
    42   19   45 1
    43   19   46 1
    44   20   21 1
    45   20   47 1
    46   20   48 1
    47   21   22 1
    48   21   24 1
    49   21   49 1
    50   22   23 1
    51   22   50 1
    52   22   51 1
    53   23   52 1
    54   23   53 1
    55   24   25 2
    56   24   26 1
@<TRIPOS>MOLECULE
ZINC49161001
   44    44     0     0     0
SMALL
USER_CHARGES

@<TRIPOS>ATOM
      1 C1         -0.0187    1.5258    0.0104 C.3       1 <0>        -0.1482
      2 C2          0.0021   -0.0041    0.0020 C.3       1 <0>        -0.0928
      3 C3          0.7421   -0.5109    1.2415 C.3       1 <0>        -0.1545
      4 C4         -1.4333   -0.5336    0.0129 C.3       1 <0>        -0.1283
      5 C5         -1.4157   -2.0577   -0.1212 C.3       1 <0>         0.1322
      6 N1         -2.7901   -2.5647   -0.1108 N.am      1 <0>        -0.7439
      7 C6         -3.0208   -3.8883   -0.2174 C.2       1 <0>         0.7129
      8 O1         -2.0884   -4.6615   -0.3223 O.2       1 <0>        -0.5683
      9 N2         -4.2853   -4.3548   -0.2079 N.am      1 <0>        -0.5306
     10 N3         -5.3597   -3.4639   -0.0871 N.am      1 <0>        -0.5298
     11 C7         -6.6241   -3.9304   -0.0775 C.2       1 <0>         0.5121
     12 O2         -6.8318   -5.1214   -0.1735 O.2       1 <0>        -0.5129
     13 C8         -7.7799   -2.9721    0.0524 C.3       1 <0>         0.1299
     14 H1         -7.5398   -2.1987    0.7821 H         1 <0>         0.1038
     15 C9         -8.0828   -2.3265   -1.3162 C.3       1 <0>        -0.1236
     16 C10        -9.2498   -3.1933   -1.8586 C.3       1 <0>        -0.1346
     17 C11       -10.0287   -3.5148   -0.5588 C.3       1 <0>         0.1004
     18 N4         -8.9870   -3.6986    0.4727 N.am      1 <0>        -0.6055
     19 C12        -9.1184   -4.4132    1.6078 C.2       1 <0>         0.5333
     20 O3         -8.1897   -4.4955    2.3835 O.2       1 <0>        -0.5340
     21 C13       -10.4193   -5.1100    1.9132 C.3       1 <0>        -0.1676
     22 H2          1.0039    1.9031    0.0027 H         1 <0>         0.0576
     23 H3         -0.5459    1.8868   -0.8726 H         1 <0>         0.0550
     24 H4         -0.5289    1.8773    0.9072 H         1 <0>         0.0553
     25 H5          0.5123   -0.3556   -0.8948 H         1 <0>         0.0745
     26 H6          0.7568   -1.6008    1.2356 H         1 <0>         0.0589
     27 H7          1.7647   -0.1336    1.2338 H         1 <0>         0.0571
     28 H8          0.2319   -0.1594    2.1383 H         1 <0>         0.0556
     29 H9         -1.9156   -0.2570    0.9504 H         1 <0>         0.0708
     30 H10        -1.9862   -0.1019   -0.8214 H         1 <0>         0.0704
     31 H11        -0.9334   -2.3344   -1.0587 H         1 <0>         0.0706
     32 H12        -0.8628   -2.4894    0.7131 H         1 <0>         0.0736
     33 H13        -3.5340   -1.9479   -0.0272 H         1 <0>         0.3903
     34 H14        -4.4514   -5.3074   -0.2846 H         1 <0>         0.4435
     35 H15        -5.1936   -2.5113   -0.0103 H         1 <0>         0.4177
     36 H16        -8.3972   -1.2902   -1.1926 H         1 <0>         0.0970
     37 H17        -7.2159   -2.3918   -1.9737 H         1 <0>         0.0887
     38 H18        -9.8678   -2.6253   -2.5541 H         1 <0>         0.0943
     39 H19        -8.8755   -4.1044   -2.3254 H         1 <0>         0.0818
     40 H20       -10.6818   -2.6838   -0.2925 H         1 <0>         0.0786
     41 H21       -10.6081   -4.4300   -0.6803 H         1 <0>         0.0841
     42 H22       -10.6413   -5.8275    1.1232 H         1 <0>         0.0902
     43 H23       -10.3364   -5.6329    2.8660 H         1 <0>         0.0947
     44 H24       -11.2209   -4.3738    1.9712 H         1 <0>         0.0894
@<TRIPOS>BOND
     1    1    2 1
     2    1   22 1
     3    1   23 1
     4    1   24 1
     5    2    3 1
     6    2    4 1
     7    2   25 1
     8    3   26 1
     9    3   27 1
    10    3   28 1
    11    4    5 1
    12    4   29 1
    13    4   30 1
    14    5    6 1
    15    5   31 1
    16    5   32 1
    17    6    7 am
    18    6   33 1
    19    7    8 2
    20    7    9 am
    21    9   10 1
    22    9   34 1
    23   10   11 am
    24   10   35 1
    25   11   12 2
    26   11   13 1
    27   13   14 1
    28   13   18 1
    29   13   15 1
    30   15   16 1
    31   15   36 1
    32   15   37 1
    33   16   17 1
    34   16   38 1
    35   16   39 1
    36   17   18 1
    37   17   40 1
    38   17   41 1
    39   18   19 am
    40   19   20 2
    41   19   21 1
    42   21   42 1
    43   21   43 1
    44   21   44 1
@<TRIPOS>MOLECULE
ZINC55187283
   32    34     0     0     0
SMALL
USER_CHARGES

@<TRIPOS>ATOM
      1 C1         -0.0813    1.4611    0.0123 C.3       1 <0>         0.0993
      2 N1         -0.0231   -0.0027    0.0032 N.am      1 <0>        -0.5808
      3 C2          0.1203   -0.7380    1.2622 C.3       1 <0>         0.1640
      4 C3         -1.2444   -1.0471    1.8217 C.2       1 <0>         0.3790
      5 N2         -1.3225   -1.7245    2.9972 N.am      1 <0>        -0.6348
      6 H1         -0.5148   -1.9988    3.4590 H         1 <0>         0.4251
      7 C4         -2.5396   -2.0127    3.5180 C.2       1 <0>         0.5846
      8 O1         -2.6435   -2.6189    4.5712 O.2       1 <0>        -0.5227
      9 C5         -3.6708   -1.5961    2.8157 C.2       1 <0>        -0.3236
     10 C6         -3.5623   -0.8964    1.6011 C.2       1 <0>         0.1675
     11 N3         -2.2847   -0.6497    1.1617 N.2       1 <0>        -0.4893
     12 C7         -4.7768   -0.5377    1.0008 C.2       1 <0>        -0.1560
     13 C8         -5.9479   -0.8645    1.5886 C.2       1 <0>        -0.1280
     14 S1         -5.4220   -1.7215    3.0638 S.3       1 <0>         0.1697
     15 C9         -0.1016   -0.6730   -1.1634 C.2       1 <0>         0.6009
     16 O2         -0.1540   -1.8884   -1.1643 O.2       1 <0>        -0.5306
     17 C10        -0.1239    0.0654   -2.4362 C.2       1 <0>         0.0451
     18 C11        -0.3366   -0.5946   -3.6204 C.2       1 <0>        -0.1564
     19 S2         -0.2589    0.7650   -4.7786 S.3       1 <0>         0.0078
     20 C12         0.0453    2.0620   -3.5876 C.2       1 <0>         0.3784
     21 N4          0.0570    1.3880   -2.4553 N.2       1 <0>        -0.5546
     22 N5          0.2177    3.4196   -3.7985 N.pl3     1 <0>        -0.7946
     23 H2          0.9139    1.8654   -0.1728 H         1 <0>         0.0585
     24 H3         -0.7629    1.8025   -0.7667 H         1 <0>         0.0970
     25 H4         -0.4381    1.8045    0.9833 H         1 <0>         0.0549
     26 H5          0.6577   -1.6687    1.0803 H         1 <0>         0.1213
     27 H6          0.6767   -0.1308    1.9762 H         1 <0>         0.1186
     28 H7         -4.7761    0.0020    0.0653 H         1 <0>         0.1482
     29 H8         -6.9527   -0.6588    1.2503 H         1 <0>         0.2040
     30 H9         -0.5044   -1.6458   -3.8026 H         1 <0>         0.2061
     31 H10         0.1784    3.7794   -4.6984 H         1 <0>         0.4226
     32 H11         0.3777    4.0108   -3.0463 H         1 <0>         0.4188
@<TRIPOS>BOND
     1    1    2 1
     2    1   23 1
     3    1   24 1
     4    1   25 1
     5    2    3 1
     6    2   15 am
     7    3    4 1
     8    3   26 1
     9    3   27 1
    10    4   11 2
    11    4    5 1
    12    5    6 1
    13    5    7 am
    14    7    8 2
    15    7    9 1
    16    9   14 1
    17    9   10 2
    18   10   11 1
    19   10   12 1
    20   12   13 2
    21   12   28 1
    22   13   14 1
    23   13   29 1
    24   15   16 2
    25   15   17 1
    26   17   21 1
    27   17   18 2
    28   18   19 1
    29   18   30 1
    30   19   20 1
    31   20   21 2
    32   20   22 1
    33   22   31 1
    34   22   32 1
@<TRIPOS>MOLECULE
ZINC63807939
   39    41     0     0     0
SMALL
USER_CHARGES

@<TRIPOS>ATOM
      1 C1         -0.0184    1.5028    0.0103 C.3       1 <0>        -0.0920
      2 C2          0.0021   -0.0041    0.0020 C.2       1 <0>        -0.0033
      3 C3         -1.0691   -0.7746    0.0028 C.2       1 <0>        -0.1434
      4 C4         -2.5364   -0.4092    0.1101 C.3       1 <0>         0.0554
      5 H1         -2.8230   -0.3263    1.1585 H         1 <0>         0.1218
      6 S1         -3.4828   -1.7496   -0.6896 S.3       1 <0>        -0.1897
      7 C5         -3.4654   -3.0994    0.5096 C.3       1 <0>        -0.1246
      8 C6         -2.2681   -3.2367    1.3356 C.2       1 <0>         0.5278
      9 O1         -2.4626   -3.7590    2.4128 O.2       1 <0>        -0.5389
     10 N1         -1.0170   -2.8950    1.1185 N.am      1 <0>        -0.6777
     11 C7         -0.5387   -2.1889   -0.0598 C.3       1 <0>         0.1960
     12 H2         -0.8559   -2.6905   -0.9740 H         1 <0>         0.1637
     13 N2          0.9164   -1.9860   -0.0241 N.2       1 <0>        -0.1506
     14 N3          1.1247   -0.7662   -0.0133 N.2       1 <0>        -0.1212
     15 C8         -2.7938    0.8964   -0.5972 C.ar      1 <0>        -0.1114
     16 C9         -2.5298    1.0124   -1.9494 C.ar      1 <0>        -0.0540
     17 C10        -2.7644    2.2083   -2.6001 C.ar      1 <0>        -0.1415
     18 C11        -3.2657    3.2932   -1.8955 C.ar      1 <0>         0.1436
     19 C12        -3.5302    3.1740   -0.5389 C.ar      1 <0>        -0.2067
     20 C13        -3.2988    1.9744    0.1060 C.ar      1 <0>        -0.0533
     21 O2         -3.4970    4.4708   -2.5332 O.3       1 <0>        -0.2863
     22 C14        -4.0136    5.5449   -1.7449 C.3       1 <0>         0.0378
     23 C15        -4.2048    6.7601   -2.6154 C.2       1 <0>         0.5188
     24 O3         -3.9261    6.7112   -3.7947 O.2       1 <0>        -0.5155
     25 N4         -4.6855    7.9013   -2.0833 N.am      1 <0>        -0.8497
     26 H3          1.0042    1.8801    0.0026 H         1 <0>         0.0822
     27 H4         -0.5455    1.8639   -0.8728 H         1 <0>         0.0874
     28 H5         -0.5286    1.8543    0.9071 H         1 <0>         0.0808
     29 H6         -4.3191   -2.9689    1.1746 H         1 <0>         0.1339
     30 H7         -3.6074   -4.0334   -0.0340 H         1 <0>         0.1472
     31 H8         -0.3637   -3.1314    1.7954 H         1 <0>         0.4171
     32 H9         -2.1395    0.1676   -2.4974 H         1 <0>         0.1328
     33 H10        -2.5573    2.2987   -3.6562 H         1 <0>         0.1395
     34 H11        -3.9205    4.0171    0.0118 H         1 <0>         0.1341
     35 H12        -3.5087    1.8798    1.1612 H         1 <0>         0.1304
     36 H13        -4.9712    5.2519   -1.3146 H         1 <0>         0.0972
     37 H14        -3.3117    5.7783   -0.9443 H         1 <0>         0.0974
     38 H15        -4.9084    7.9404   -1.1401 H         1 <0>         0.4038
     39 H16        -4.8086    8.6835   -2.6436 H         1 <0>         0.4111
@<TRIPOS>BOND
     1    1    2 1
     2    1   26 1
     3    1   27 1
     4    1   28 1
     5    2   14 1
     6    2    3 2
     7    3   11 1
     8    3    4 1
     9    4    5 1
    10    4    6 1
    11    4   15 1
    12    6    7 1
    13    7    8 1
    14    7   29 1
    15    7   30 1
    16    8    9 2
    17    8   10 am
    18   10   11 1
    19   10   31 1
    20   11   12 1
    21   11   13 1
    22   13   14 2
    23   15   20 ar
    24   15   16 ar
    25   16   17 ar
    26   16   32 1
    27   17   18 ar
    28   17   33 1
    29   18   19 ar
    30   18   21 1
    31   19   20 ar
    32   19   34 1
    33   20   35 1
    34   21   22 1
    35   22   23 1
    36   22   36 1
    37   22   37 1
    38   23   24 2
    39   23   25 am
    40   25   38 1
    41   25   39 1
@<TRIPOS>MOLECULE
ZINC02641351
   39    41     0     0     0
SMALL
USER_CHARGES
N-(3-carbamoyl-4,5,6,7-tetrahydrobenzothiophen-2-yl)-1-methyl-6-oxo-pyridazine-3-carboxamide
@<TRIPOS>ATOM
      1 C1          5.7701    6.8349   -0.0171 C.3       1 <0>         0.0717
      2 N1          4.3057    6.8760   -0.0029 N.am      1 <0>        -0.3307
      3 C2          3.6845    8.0701    0.0094 C.2       1 <0>         0.4792
      4 O1          4.3361    9.1013    0.0092 O.2       1 <0>        -0.5108
      5 C3          2.2727    8.1211    0.0232 C.2       1 <0>        -0.1791
      6 C4          1.5911    6.9406    0.0233 C.2       1 <0>        -0.0338
      7 C5          2.3363    5.7366    0.0097 C.2       1 <0>         0.0164
      8 N2          3.6501    5.7722    0.0024 N.2       1 <0>        -0.1765
      9 C6          1.6344    4.4356    0.0099 C.2       1 <0>         0.5900
     10 O2          0.4194    4.4005    0.0217 O.2       1 <0>        -0.4821
     11 N3          2.3417    3.2884   -0.0031 N.am      1 <0>        -0.6039
     12 C7          1.6839    2.0692   -0.0029 C.2       1 <0>         0.0664
     13 C8          2.2316    0.7937   -0.0149 C.2       1 <0>        -0.2205
     14 C9          1.3125   -0.3316   -0.0120 C.2       1 <0>        -0.0663
     15 C10         0.0021   -0.0041    0.0020 C.2       1 <0>        -0.2034
     16 S1         -0.0219    1.7661    0.0118 S.3       1 <0>         0.2339
     17 C11        -1.1638   -0.9440    0.0074 C.3       1 <0>        -0.0364
     18 C12        -0.6605   -2.3413   -0.3830 C.3       1 <0>        -0.1159
     19 C13         0.5902   -2.6630    0.4402 C.3       1 <0>        -0.1188
     20 C14         1.7570   -1.7890   -0.0232 C.3       1 <0>        -0.0608
     21 C15         3.6833    0.5897   -0.0296 C.2       1 <0>         0.5835
     22 O3          4.2760    0.5103   -1.0897 O.2       1 <0>        -0.5313
     23 N4          4.3615    0.4900    1.1308 N.am      1 <0>        -0.8477
     24 H1          6.1430    6.8191    1.0070 H         1 <0>         0.0893
     25 H2          6.1033    5.9378   -0.5390 H         1 <0>         0.1009
     26 H3          6.1534    7.7171   -0.5299 H         1 <0>         0.1075
     27 H4          1.7498    9.0660    0.0336 H         1 <0>         0.1755
     28 H5          0.5112    6.9240    0.0331 H         1 <0>         0.1690
     29 H6          3.3112    3.3164   -0.0125 H         1 <0>         0.4271
     30 H7         -1.6039   -0.9775    1.0041 H         1 <0>         0.0839
     31 H8         -1.9101   -0.6076   -0.7123 H         1 <0>         0.0823
     32 H9         -1.4347   -3.0798   -0.1751 H         1 <0>         0.0747
     33 H10        -0.4155   -2.3578   -1.4450 H         1 <0>         0.0691
     34 H11         0.3895   -2.4701    1.4941 H         1 <0>         0.0673
     35 H12         0.8508   -3.7130    0.3075 H         1 <0>         0.0706
     36 H13         2.6018   -1.9186    0.6533 H         1 <0>         0.0723
     37 H14         2.0501   -2.0761   -1.0330 H         1 <0>         0.0799
     38 H15         3.8892    0.5533    1.9756 H         1 <0>         0.4037
     39 H16         5.3221    0.3550    1.1211 H         1 <0>         0.4038
@<TRIPOS>BOND
     1    1    2 1
     2    1   24 1
     3    1   25 1
     4    1   26 1
     5    2    8 1
     6    2    3 am
     7    3    4 2
     8    3    5 1
     9    5    6 2
    10    5   27 1
    11    6    7 1
    12    6   28 1
    13    7    8 2
    14    7    9 1
    15    9   10 2
    16    9   11 am
    17   11   12 1
    18   11   29 1
    19   12   16 1
    20   12   13 2
    21   13   14 1
    22   13   21 1
    23   14   20 1
    24   14   15 2
    25   15   16 1
    26   15   17 1
    27   17   18 1
    28   17   30 1
    29   17   31 1
    30   18   19 1
    31   18   32 1
    32   18   33 1
    33   19   20 1
    34   19   34 1
    35   19   35 1
    36   20   36 1
    37   20   37 1
    38   21   22 2
    39   21   23 am
    40   23   38 1
    41   23   39 1
@<TRIPOS>MOLECULE
ZINC37550495
   33    34     0     0     0
SMALL
USER_CHARGES

@<TRIPOS>ATOM
      1 C1         -0.0172    1.3805    0.0042 C.ar      1 <0>        -0.0425
      2 C2          1.1901    2.0606   -0.0038 C.ar      1 <0>        -0.1759
      3 C3          2.3797    1.3344   -0.0173 C.ar      1 <0>         0.2647
      4 N1          2.3609    0.0056   -0.0225 N.ar      1 <0>        -0.4656
      5 C4          1.2240   -0.6693   -0.0151 C.ar      1 <0>         0.3672
      6 C5          0.0018   -0.0042   -0.0016 C.ar      1 <0>        -0.1972
      7 N2          1.2499   -2.0621   -0.0209 N.am      1 <0>        -0.6442
      8 C6          2.4239   -2.7137   -0.1374 C.2       1 <0>         0.5853
      9 O1          3.4676   -2.0897   -0.1442 O.2       1 <0>        -0.4712
     10 C7          2.4428   -4.1841   -0.2566 C.2       1 <0>        -0.0867
     11 C8          3.6491   -4.8464   -0.3700 C.2       1 <0>         0.1884
     12 N3          3.6714   -6.1905   -0.4792 N.am      1 <0>        -0.5856
     13 H1          4.5158   -6.6612   -0.5588 H         1 <0>         0.4292
     14 C9          2.5081   -6.8746   -0.4763 C.2       1 <0>         0.4773
     15 O2          2.5096   -8.0893   -0.5737 O.2       1 <0>        -0.5102
     16 C10         1.2842   -6.1685   -0.3586 C.2       1 <0>         0.0518
     17 N4          1.2881   -4.8671   -0.2485 N.2       1 <0>        -0.3780
     18 C11         3.6334    2.0263   -0.0261 C.1       1 <0>        -0.1309
     19 C12         4.6613    2.5936   -0.0333 C.1       1 <0>        -0.1180
     20 C13         5.9500    3.3048   -0.0423 C.3       1 <0>        -0.0086
     21 C14         7.0934    2.2884   -0.0564 C.3       1 <0>         0.0805
     22 O3          8.3445    2.9788   -0.0652 O.3       1 <0>        -0.5743
     23 H2         -0.9532    1.9190    0.0191 H         1 <0>         0.1472
     24 H3          1.2090    3.1404    0.0000 H         1 <0>         0.1414
     25 H4         -0.9228   -0.5623    0.0047 H         1 <0>         0.1434
     26 H5          0.4231   -2.5629    0.0588 H         1 <0>         0.4290
     27 H6          4.5739   -4.2886   -0.3715 H         1 <0>         0.1927
     28 H7          0.3483   -6.7076   -0.3553 H         1 <0>         0.1983
     29 H8          6.0118    3.9336   -0.9306 H         1 <0>         0.1004
     30 H9          6.0279    3.9270    0.8493 H         1 <0>         0.1004
     31 H10         7.0317    1.6596    0.8318 H         1 <0>         0.0528
     32 H11         7.0155    1.6662   -0.9481 H         1 <0>         0.0528
     33 H12         9.1157    2.3955   -0.0744 H         1 <0>         0.3862
@<TRIPOS>BOND
     1    1    6 ar
     2    1    2 ar
     3    1   23 1
     4    2    3 ar
     5    2   24 1
     6    3    4 ar
     7    3   18 1
     8    4    5 ar
     9    5    6 ar
    10    5    7 1
    11    6   25 1
    12    7    8 am
    13    7   26 1
    14    8    9 2
    15    8   10 1
    16   10   17 1
    17   10   11 2
    18   11   12 1
    19   11   27 1
    20   12   13 1
    21   12   14 am
    22   14   15 2
    23   14   16 1
    24   16   17 2
    25   16   28 1
    26   18   19 3
    27   19   20 1
    28   20   21 1
    29   20   29 1
    30   20   30 1
    31   21   22 1
    32   21   31 1
    33   21   32 1
    34   22   33 1
@<TRIPOS>MOLECULE
ZINC42192635
   35    36     0     0     0
SMALL
USER_CHARGES

@<TRIPOS>ATOM
      1 C1         -0.0187    1.5258    0.0104 C.3       1 <0>        -0.1670
      2 C2          0.0021   -0.0041    0.0020 C.3       1 <0>         0.1080
      3 N1         -1.3723   -0.5112    0.0124 N.am      1 <0>        -0.7123
      4 C3         -1.6006   -1.8394    0.0075 C.2       1 <0>         0.5457
      5 O1         -0.6682   -2.6149   -0.0056 O.2       1 <0>        -0.5230
      6 C4         -3.0144   -2.3611    0.0182 C.3       1 <0>        -0.6057
      7 H1         -3.6340   -1.7447   -0.6332 H         1 <0>         0.1678
      8 C5         -3.5660   -2.3102    1.4444 C.3       1 <0>        -0.1384
      9 S1         -3.0311   -4.0750   -0.5759 S.o2      1 <0>         2.5615
     10 O2         -2.6916   -4.1183   -1.9550 O.2       1 <0>        -0.8768
     11 O3         -2.3772   -4.9231    0.3581 O.2       1 <0>        -0.8753
     12 C6         -4.7241   -4.5591   -0.5142 C.2       1 <0>        -0.3157
     13 N2         -5.5716   -4.4208   -1.4884 N.2       1 <0>        -0.3514
     14 C7         -6.7813   -4.9011   -1.0895 C.ar      1 <0>        -0.0572
     15 C8         -8.0290   -5.0068   -1.7070 C.ar      1 <0>         0.0113
     16 C9         -9.0820   -5.5506   -1.0279 C.ar      1 <0>        -0.1856
     17 C10        -8.9220   -6.0020    0.2805 C.ar      1 <0>         0.2723
     18 C11        -7.6905   -5.9046    0.9083 C.ar      1 <0>        -0.2063
     19 C12        -6.6151   -5.3549    0.2281 C.ar      1 <0>         0.0957
     20 O4         -5.3213   -5.1292    0.5452 O.3       1 <0>        -0.1658
     21 N3        -10.0090   -6.5554    0.9633 N.pl3     1 <0>        -0.8580
     22 H2          1.0039    1.9031    0.0027 H         1 <0>         0.0793
     23 H3         -0.5459    1.8868   -0.8726 H         1 <0>         0.0642
     24 H4         -0.5289    1.8773    0.9072 H         1 <0>         0.0634
     25 H5          0.5123   -0.3556   -0.8948 H         1 <0>         0.0764
     26 H6          0.5293   -0.3651    0.8851 H         1 <0>         0.0757
     27 H7         -2.1181    0.1091    0.0229 H         1 <0>         0.4066
     28 H8         -4.5886   -2.6875    1.4521 H         1 <0>         0.0823
     29 H9         -2.9464   -2.9266    2.0958 H         1 <0>         0.0909
     30 H10        -3.5560   -1.2804    1.8013 H         1 <0>         0.0910
     31 H11        -8.1615   -4.6586   -2.7207 H         1 <0>         0.1465
     32 H12       -10.0458   -5.6309   -1.5085 H         1 <0>         0.1444
     33 H13        -7.5693   -6.2549    1.9227 H         1 <0>         0.1415
     34 H14       -10.8721   -6.6244    0.5261 H         1 <0>         0.4079
     35 H15        -9.9001   -6.8704    1.8742 H         1 <0>         0.4062
@<TRIPOS>BOND
     1    1    2 1
     2    1   22 1
     3    1   23 1
     4    1   24 1
     5    2    3 1
     6    2   25 1
     7    2   26 1
     8    3    4 am
     9    3   27 1
    10    4    5 2
    11    4    6 1
    12    6    7 1
    13    6    8 1
    14    6    9 1
    15    8   28 1
    16    8   29 1
    17    8   30 1
    18    9   10 2
    19    9   11 2
    20    9   12 1
    21   12   20 1
    22   12   13 2
    23   13   14 1
    24   14   19 ar
    25   14   15 ar
    26   15   16 ar
    27   15   31 1
    28   16   17 ar
    29   16   32 1
    30   17   18 ar
    31   17   21 1
    32   18   19 ar
    33   18   33 1
    34   19   20 1
    35   21   34 1
    36   21   35 1
@<TRIPOS>MOLECULE
ZINC50265003
   36    37     0     0     0
SMALL
USER_CHARGES

@<TRIPOS>ATOM
      1 C1         -0.0184    1.5028    0.0103 C.3       1 <0>        -0.1031
      2 C2          0.0021   -0.0041    0.0020 C.2       1 <0>         0.1640
      3 C3          0.0080   -0.8179   -1.1355 C.2       1 <0>        -0.7795
      4 C4          0.0279   -2.1072   -0.7249 C.2       1 <0>         0.2050
      5 N1          0.0343   -2.1090    0.6245 N.pl3     1 <0>        -0.3705
      6 N2          0.0231   -0.7768    1.0576 N.2       1 <0>        -0.3051
      7 C5          0.0548   -3.2948    1.4847 C.3       1 <0>         0.0948
      8 C6          0.0401   -3.3230   -1.6152 C.3       1 <0>        -0.1316
      9 S1         -0.0085   -0.2626   -2.8076 S.o2      1 <0>         2.6811
     10 O1         -0.5486   -1.3241   -3.5827 O.2       1 <0>        -1.0041
     11 O2         -0.5776    1.0394   -2.7975 O.2       1 <0>        -0.9985
     12 N3          1.5687   -0.0862   -3.2805 N.2       1 <0>        -1.0085
     13 C7          1.8626    0.3433   -4.5624 C.2       1 <0>         0.4221
     14 N4          1.0256    0.6606   -5.5298 N.2       1 <0>        -0.6557
     15 C8          1.4603    1.0566   -6.7072 C.2       1 <0>         0.2092
     16 C9          2.8210    1.1207   -6.8716 C.2       1 <0>        -0.3330
     17 S2          3.3745    0.5930   -5.2580 S.3       1 <0>         0.0718
     18 C10         3.5858    1.5086   -8.0184 C.1       1 <0>         0.1354
     19 C11         4.2128    1.8267   -8.9586 C.1       1 <0>        -0.3937
     20 C12         4.9989    2.2255  -10.1375 C.3       1 <0>         0.1662
     21 N5          6.4313    2.1311   -9.8256 N.4       1 <0>        -0.6390
     22 H1          1.0042    1.8801    0.0026 H         1 <0>         0.0831
     23 H2         -0.5455    1.8639   -0.8728 H         1 <0>         0.1120
     24 H3         -0.5286    1.8543    0.9071 H         1 <0>         0.0759
     25 H4          1.0875   -3.5746    1.6932 H         1 <0>         0.0784
     26 H5         -0.4577   -3.0734    2.4209 H         1 <0>         0.0919
     27 H6         -0.4500   -4.1185    0.9800 H         1 <0>         0.0896
     28 H7          1.0706   -3.6020   -1.8350 H         1 <0>         0.0927
     29 H8         -0.4598   -4.1489   -1.1091 H         1 <0>         0.0771
     30 H9         -0.4816   -3.0976   -2.5453 H         1 <0>         0.1260
     31 H10         0.7800    1.3177   -7.5043 H         1 <0>         0.1605
     32 H11         4.7643    1.5641  -10.9714 H         1 <0>         0.1388
     33 H12         4.7529    3.2524  -10.4078 H         1 <0>         0.1405
     34 H13         6.6486    2.7435   -9.0536 H         1 <0>         0.4360
     35 H14         6.6591    1.1806   -9.5753 H         1 <0>         0.4358
     36 H15         6.9702    2.4045  -10.6337 H         1 <0>         0.4344
@<TRIPOS>BOND
     1    1    2 1
     2    1   22 1
     3    1   23 1
     4    1   24 1
     5    2    6 2
     6    2    3 1
     7    3    4 2
     8    3    9 1
     9    4    5 1
    10    4    8 1
    11    5    6 1
    12    5    7 1
    13    7   25 1
    14    7   26 1
    15    7   27 1
    16    8   28 1
    17    8   29 1
    18    8   30 1
    19    9   10 2
    20    9   11 2
    21    9   12 1
    22   12   13 1
    23   13   17 1
    24   13   14 2
    25   14   15 1
    26   15   16 2
    27   15   31 1
    28   16   17 1
    29   16   18 1
    30   18   19 3
    31   19   20 1
    32   20   21 1
    33   20   32 1
    34   20   33 1
    35   21   34 1
    36   21   35 1
    37   21   36 1
@<TRIPOS>MOLECULE
ZINC64788352
   36    38     0     0     0
SMALL
USER_CHARGES

@<TRIPOS>ATOM
      1 C1         -0.0157    1.3058    0.0092 C.2       1 <0>        -0.1571
      2 C2          0.0021   -0.0041    0.0020 C.2       1 <0>        -0.1810
      3 C3          1.3172   -0.7397   -0.0145 C.3       1 <0>         0.1399
      4 N1          1.3674   -1.6756    1.1115 N.am      1 <0>        -0.5548
      5 C4          1.8621   -1.2571    2.2946 C.2       1 <0>         0.5862
      6 O1          2.2642   -0.1175    2.4358 O.2       1 <0>        -0.5264
      7 C5          1.9019   -2.2175    3.4119 C.2       1 <0>        -0.4122
      8 C6          1.3930   -3.5752    3.1480 C.2       1 <0>         0.5904
      9 N2          0.9269   -3.8526    1.9129 N.am      1 <0>        -0.6628
     10 H1          0.5881   -4.7414    1.7228 H         1 <0>         0.4343
     11 C7          0.9157   -2.9264    0.9440 C.2       1 <0>         0.7127
     12 O2          0.4778   -3.2390   -0.1458 O.2       1 <0>        -0.5335
     13 O3          1.3936   -4.4232    4.0205 O.2       1 <0>        -0.5106
     14 C8          2.3954   -1.8605    4.6530 C.2       1 <0>         0.3475
     15 N3          2.8761   -0.6508    4.9961 N.pl3     1 <0>        -0.4976
     16 N4          3.2619   -0.5831    6.3020 N.3       1 <0>        -0.4424
     17 C9          3.4451   -1.9684    6.7938 C.3       1 <0>         0.1390
     18 H2          4.4766   -2.2952    6.6628 H         1 <0>         0.1036
     19 C10         2.4850   -2.7615    5.8715 C.3       1 <0>        -0.1017
     20 C11         3.0236   -2.0884    8.2357 C.2       1 <0>        -0.1526
     21 C12         3.5954   -2.8032    9.2354 C.2       1 <0>        -0.1347
     22 C13         3.0300   -2.7632   10.4962 C.2       1 <0>        -0.1632
     23 C14         1.9206   -2.0104   10.6955 C.2       1 <0>        -0.1712
     24 S1          1.6464   -1.3198    9.0722 S.3       1 <0>         0.0866
     25 H3          0.9122    1.8585    0.0033 H         1 <0>         0.1017
     26 H4         -0.9582    1.8330    0.0166 H         1 <0>         0.1032
     27 H5         -0.9258   -0.5567    0.0079 H         1 <0>         0.1134
     28 H6          1.4134   -1.2911   -0.9498 H         1 <0>         0.1090
     29 H7          2.1349   -0.0241    0.0711 H         1 <0>         0.1036
     30 H8          4.1122   -0.0490    6.4007 H         1 <0>         0.3636
     31 H9          1.5071   -2.8823    6.3374 H         1 <0>         0.1275
     32 H10         2.9127   -3.7289    5.6081 H         1 <0>         0.1317
     33 H11         4.4792   -3.3954    9.0497 H         1 <0>         0.1349
     34 H12         3.4655   -3.3237   11.3102 H         1 <0>         0.1363
     35 H13         1.3523   -1.8633   11.6020 H         1 <0>         0.1875
     36 H14         2.9412    0.0947    4.3789 H         1 <0>         0.4491
@<TRIPOS>BOND
     1    1    2 2
     2    1   25 1
     3    1   26 1
     4    2    3 1
     5    2   27 1
     6    3    4 1
     7    3   28 1
     8    3   29 1
     9    4   11 am
    10    4    5 am
    11    5    6 2
    12    5    7 1
    13    7    8 1
    14    7   14 2
    15    8    9 am
    16    8   13 2
    17    9   10 1
    18    9   11 am
    19   11   12 2
    20   14   19 1
    21   14   15 1
    22   15   16 1
    23   15   36 1
    24   16   17 1
    25   16   30 1
    26   17   18 1
    27   17   19 1
    28   17   20 1
    29   19   31 1
    30   19   32 1
    31   20   24 1
    32   20   21 2
    33   21   22 1
    34   21   33 1
    35   22   23 2
    36   22   34 1
    37   23   24 1
    38   23   35 1
@<TRIPOS>MOLECULE
ZINC20294854
   43    45     0     0     0
SMALL
USER_CHARGES
(1R,4R)-3,3-dimethyl-2-methylene-N-[(5-methyl-2H-pyrazol-3-yl)methyl]norbornane-1-carboxamide
@<TRIPOS>ATOM
      1 C1         -5.1009    0.1928    7.5868 C.3       1 <0>        -0.0769
      2 C2         -3.8531    0.6955    6.9077 C.2       1 <0>         0.0684
      3 C3         -3.0983   -0.0015    5.9585 C.2       1 <0>        -0.2481
      4 C4         -2.0609    0.7860    5.5916 C.2       1 <0>         0.0547
      5 N1         -2.1529    1.9384    6.2878 N.pl3     1 <0>        -0.4759
      6 H1         -1.3994    2.7274    6.1474 H         1 <0>         0.4678
      7 N2         -3.2890    1.8597    7.1036 N.2       1 <0>        -0.2717
      8 C5         -0.9907    0.4361    4.5899 C.3       1 <0>         0.1851
      9 N3         -1.3583    0.9700    3.2761 N.am      1 <0>        -0.7370
     10 C6         -0.5447    0.7778    2.2190 C.2       1 <0>         0.5492
     11 O1          0.4917    0.1629    2.3553 O.2       1 <0>        -0.5336
     12 C7         -0.9228    1.3271    0.8675 C.3       1 <0>        -0.0803
     13 C8         -2.2393    0.7643    0.2448 C.3       1 <0>        -0.1037
     14 C9         -2.1156    1.0648   -1.2667 C.3       1 <0>        -0.1285
     15 C10        -0.7409    1.7880   -1.4089 C.3       1 <0>        -0.0802
     16 H2         -0.3392    1.8296   -2.4321 H         1 <0>         0.1100
     17 C11         0.0898    1.0506   -0.2991 C.3       1 <0>        -0.0934
     18 C12        -0.9591    3.1697   -0.7192 C.3       1 <0>        -0.0325
     19 C13        -1.0708    2.8518    0.7663 C.2       1 <0>        -0.0923
     20 C14        -1.2537    3.6991    1.7485 C.2       1 <0>        -0.1917
     21 C15         0.2368    4.0884   -0.9774 C.3       1 <0>        -0.1389
     22 C16        -2.2493    3.8188   -1.2241 C.3       1 <0>        -0.1444
     23 H3         -5.3349   -0.8182    7.2221 H         1 <0>         0.0791
     24 H4         -5.9393    0.8677    7.3596 H         1 <0>         0.0765
     25 H5         -4.9393    0.1620    8.6744 H         1 <0>         0.0767
     26 H6         -3.3069   -0.9929    5.5844 H         1 <0>         0.1467
     27 H7         -0.0331    0.8735    4.9086 H         1 <0>         0.0806
     28 H8         -0.8912   -0.6576    4.5265 H         1 <0>         0.0947
     29 H9         -2.2983    1.5277    3.1525 H         1 <0>         0.4245
     30 H10        -2.3063   -0.3156    0.4432 H         1 <0>         0.0699
     31 H11        -3.1045    1.2740    0.6939 H         1 <0>         0.0690
     32 H12        -2.1435    0.1213   -1.8316 H         1 <0>         0.0693
     33 H13        -2.9515    1.7062   -1.5827 H         1 <0>         0.0814
     34 H14         1.0638    1.4987   -0.0531 H         1 <0>         0.0768
     35 H15         0.2087   -0.0349   -0.4319 H         1 <0>         0.0791
     36 H16        -1.3446    4.7748    1.5372 H         1 <0>         0.1100
     37 H17        -1.3164    3.3349    2.7846 H         1 <0>         0.1025
     38 H18         0.0677    5.0575   -0.4851 H         1 <0>         0.0560
     39 H19         0.3536    4.2426   -2.0603 H         1 <0>         0.0607
     40 H20         1.1488    3.6256   -0.5725 H         1 <0>         0.0583
     41 H21        -2.3887    4.7911   -0.7289 H         1 <0>         0.0553
     42 H22        -3.1032    3.1645   -0.9944 H         1 <0>         0.0661
     43 H23        -2.1836    3.9675   -2.3120 H         1 <0>         0.0608
@<TRIPOS>BOND
     1    1    2 1
     2    1   23 1
     3    1   24 1
     4    1   25 1
     5    2    7 2
     6    2    3 1
     7    3    4 2
     8    3   26 1
     9    4    5 1
    10    4    8 1
    11    5    6 1
    12    5    7 1
    13    8    9 1
    14    8   27 1
    15    8   28 1
    16    9   10 am
    17    9   29 1
    18   10   11 2
    19   10   12 1
    20   12   17 1
    21   12   19 1
    22   12   13 1
    23   13   14 1
    24   13   30 1
    25   13   31 1
    26   14   15 1
    27   14   32 1
    28   14   33 1
    29   15   16 1
    30   15   17 1
    31   15   18 1
    32   17   34 1
    33   17   35 1
    34   18   19 1
    35   18   21 1
    36   18   22 1
    37   19   20 2
    38   20   36 1
    39   20   37 1
    40   21   38 1
    41   21   39 1
    42   21   40 1
    43   22   41 1
    44   22   42 1
    45   22   43 1
@<TRIPOS>MOLECULE
ZINC37507704
   37    39     0     0     0
SMALL
USER_CHARGES

@<TRIPOS>ATOM
      1 C1         -0.2971    1.7628    0.3369 C.3       1 <0>        -0.1450
      2 C2         -0.1182    0.2735    0.0354 C.3       1 <0>        -0.0316
      3 C3         -1.4650   -0.4027    0.0275 C.2       1 <0>        -0.2857
      4 C4         -2.1466   -0.9065    1.1512 C.2       1 <0>         0.1923
      5 N1         -3.2876   -1.4211    0.7436 N.2       1 <0>        -0.2902
      6 N2         -3.3709   -1.2633   -0.6456 N.pl3     1 <0>        -0.3517
      7 C5         -2.2410   -0.6296   -1.0655 C.2       1 <0>         0.3715
      8 N3         -1.9345   -0.2802   -2.3774 N.pl3     1 <0>        -0.8534
      9 C6         -4.4324   -1.6794   -1.4594 C.ar      1 <0>         0.1652
     10 C7         -4.7928   -0.9289   -2.5707 C.ar      1 <0>        -0.1503
     11 C8         -5.8399   -1.3418   -3.3711 C.ar      1 <0>        -0.0928
     12 C9         -6.5291   -2.5014   -3.0668 C.ar      1 <0>        -0.1264
     13 C10        -6.1729   -3.2508   -1.9605 C.ar      1 <0>        -0.0946
     14 C11        -5.1227   -2.8465   -1.1597 C.ar      1 <0>        -0.1139
     15 C12        -1.6622   -0.8653    2.5539 C.2       1 <0>        -0.1184
     16 C13        -0.3239   -1.2202    3.0388 C.2       1 <0>        -0.1879
     17 C14        -0.3482   -1.0286    4.3687 C.2       1 <0>        -0.0360
     18 O1         -1.5668   -0.5950    4.7249 O.3       1 <0>        -0.1784
     19 C15        -2.3643   -0.4856    3.6522 C.2       1 <0>         0.0295
     20 C16        -3.7986   -0.0232    3.6643 C.3       1 <0>        -0.0726
     21 H1          0.6770    2.2519    0.3426 H         1 <0>         0.0530
     22 H2         -0.9265    2.2156   -0.4293 H         1 <0>         0.0483
     23 H3         -0.7692    1.8820    1.3121 H         1 <0>         0.0539
     24 H4          0.3539    0.1544   -0.9398 H         1 <0>         0.0574
     25 H5          0.5112   -0.1792    0.8015 H         1 <0>         0.0706
     26 H6         -1.0985    0.1695   -2.5768 H         1 <0>         0.4162
     27 H7         -2.5569   -0.4863   -3.0922 H         1 <0>         0.4016
     28 H8         -4.2552   -0.0229   -2.8087 H         1 <0>         0.1286
     29 H9         -6.1209   -0.7583   -4.2353 H         1 <0>         0.1332
     30 H10        -7.3475   -2.8223   -3.6942 H         1 <0>         0.1302
     31 H11        -6.7135   -4.1556   -1.7250 H         1 <0>         0.1330
     32 H12        -4.8419   -3.4347   -0.2986 H         1 <0>         0.1343
     33 H13         0.5110   -1.5657    2.4473 H         1 <0>         0.1535
     34 H14         0.4793   -1.1967    5.0419 H         1 <0>         0.2063
     35 H15        -4.4559   -0.8816    3.8033 H         1 <0>         0.0860
     36 H16        -3.9457    0.6832    4.4813 H         1 <0>         0.0775
     37 H17        -4.0315    0.4631    2.7170 H         1 <0>         0.0865
@<TRIPOS>BOND
     1    1    2 1
     2    1   21 1
     3    1   22 1
     4    1   23 1
     5    2    3 1
     6    2   24 1
     7    2   25 1
     8    3    7 2
     9    3    4 1
    10    4    5 2
    11    4   15 1
    12    5    6 1
    13    6    7 1
    14    6    9 1
    15    7    8 1
    16    8   26 1
    17    8   27 1
    18    9   14 ar
    19    9   10 ar
    20   10   11 ar
    21   10   28 1
    22   11   12 ar
    23   11   29 1
    24   12   13 ar
    25   12   30 1
    26   13   14 ar
    27   13   31 1
    28   14   32 1
    29   15   19 2
    30   15   16 1
    31   16   17 2
    32   16   33 1
    33   17   18 1
    34   17   34 1
    35   18   19 1
    36   19   20 1
    37   20   35 1
    38   20   36 1
    39   20   37 1
@<TRIPOS>MOLECULE
ZINC41583490
   31    33     0     0     0
SMALL
USER_CHARGES

@<TRIPOS>ATOM
      1 C1         -0.0184    1.5028    0.0103 C.3       1 <0>        -0.1173
      2 C2          0.0021   -0.0041    0.0020 C.ar      1 <0>        -0.0781
      3 C3          0.0057   -0.6864   -1.2013 C.ar      1 <0>        -0.1230
      4 C4          0.0244   -2.0662   -1.2152 C.ar      1 <0>        -0.0949
      5 C5          0.0396   -2.7725   -0.0132 C.ar      1 <0>        -0.0417
      6 C6          0.0359   -2.0793    1.1965 C.ar      1 <0>        -0.0715
      7 C7          0.0229   -0.6994    1.1978 C.ar      1 <0>        -0.1191
      8 C8          0.0592   -4.2546   -0.0214 C.2       1 <0>        -0.0086
      9 C9         -0.9875   -4.9559   -0.5175 C.2       1 <0>        -0.1489
     10 S1         -0.4823   -6.6519   -0.3017 S.3       1 <0>         0.1574
     11 C10         1.1042   -6.3772    0.4410 C.2       1 <0>         0.1031
     12 C11         1.2098   -4.9862    0.4997 C.2       1 <0>        -0.2294
     13 C12         2.4646   -4.4670    1.0831 C.2       1 <0>         0.5729
     14 O1          2.6472   -3.2673    1.1815 O.2       1 <0>        -0.4814
     15 N1          3.4020   -5.3340    1.5045 N.am      1 <0>        -0.6545
     16 H1          4.2241   -4.9895    1.8872 H         1 <0>         0.4367
     17 C13         3.2328   -6.6631    1.4113 C.2       1 <0>         0.7138
     18 O2          4.1109   -7.4055    1.8068 O.2       1 <0>        -0.5271
     19 N2          2.1037   -7.1896    0.8974 N.am      1 <0>        -0.5966
     20 H2          2.0047   -8.1528    0.8401 H         1 <0>         0.4406
     21 C14        -2.2698   -4.4297   -1.1090 C.3       1 <0>        -0.0685
     22 H3          1.0042    1.8801    0.0026 H         1 <0>         0.0712
     23 H4         -0.5455    1.8639   -0.8728 H         1 <0>         0.0666
     24 H5         -0.5286    1.8543    0.9071 H         1 <0>         0.0665
     25 H6         -0.0065   -0.1382   -2.1318 H         1 <0>         0.1230
     26 H7          0.0268   -2.5979   -2.1553 H         1 <0>         0.1210
     27 H8          0.0474   -2.6212    2.1306 H         1 <0>         0.1160
     28 H9          0.0244   -0.1613    2.1342 H         1 <0>         0.1219
     29 H10        -2.1448   -4.2920   -2.1831 H         1 <0>         0.0836
     30 H11        -3.0740   -5.1422   -0.9252 H         1 <0>         0.0782
     31 H12        -2.5181   -3.4743   -0.6467 H         1 <0>         0.0880
@<TRIPOS>BOND
     1    1    2 1
     2    1   22 1
     3    1   23 1
     4    1   24 1
     5    2    7 ar
     6    2    3 ar
     7    3    4 ar
     8    3   25 1
     9    4    5 ar
    10    4   26 1
    11    5    6 ar
    12    5    8 1
    13    6    7 ar
    14    6   27 1
    15    7   28 1
    16    8   12 1
    17    8    9 2
    18    9   10 1
    19    9   21 1
    20   10   11 1
    21   11   19 1
    22   11   12 2
    23   12   13 1
    24   13   14 2
    25   13   15 am
    26   15   16 1
    27   15   17 am
    28   17   18 2
    29   17   19 am
    30   19   20 1
    31   21   29 1
    32   21   30 1
    33   21   31 1
@<TRIPOS>MOLECULE
ZINC50865411
   39    41     0     0     0
SMALL
USER_CHARGES

@<TRIPOS>ATOM
      1 C1         -0.0187    1.5258    0.0104 C.3       1 <0>        -0.1677
      2 C2          0.0021   -0.0041    0.0020 C.3       1 <0>         0.1236
      3 N1         -1.3723   -0.5112    0.0124 N.pl3     1 <0>        -0.7105
      4 C3         -1.6070   -1.8766    0.0073 C.ar      1 <0>         0.4439
      5 C4         -2.9188   -2.3704    0.0113 C.ar      1 <0>        -0.2470
      6 C5         -3.1082   -3.7311    0.0027 C.ar      1 <0>         0.2108
      7 N2         -2.0452   -4.5306   -0.0025 N.ar      1 <0>        -0.5524
      8 C6         -0.8165   -4.0386   -0.0053 C.ar      1 <0>         0.3993
      9 N3         -0.5926   -2.7317   -0.0070 N.ar      1 <0>        -0.5698
     10 C7          0.3370   -4.9710   -0.0118 C.ar      1 <0>        -0.0289
     11 C8          0.1225   -6.3485   -0.0208 C.ar      1 <0>        -0.0779
     12 C9          1.1975   -7.2140   -0.0268 C.ar      1 <0>        -0.1140
     13 C10         2.4884   -6.7191   -0.0240 C.ar      1 <0>        -0.1255
     14 C11         2.7108   -5.3492   -0.0146 C.ar      1 <0>         0.0927
     15 C12         1.6377   -4.4729   -0.0148 C.ar      1 <0>        -0.0968
     16 O1          3.9815   -4.8671   -0.0114 O.3       1 <0>        -0.4968
     17 C13        -4.4756   -4.3591   -0.0095 C.3       1 <0>        -0.0714
     18 C14        -5.5330   -3.3466    0.4278 C.3       1 <0>        -0.1194
     19 C15        -5.3564   -2.0695   -0.4019 C.3       1 <0>        -0.1192
     20 C16        -4.0577   -1.3888    0.0285 C.3       1 <0>        -0.0645
     21 H1          1.0039    1.9031    0.0027 H         1 <0>         0.0770
     22 H2         -0.5459    1.8868   -0.8726 H         1 <0>         0.0613
     23 H3         -0.5289    1.8773    0.9072 H         1 <0>         0.0616
     24 H4          0.5123   -0.3556   -0.8948 H         1 <0>         0.0666
     25 H5          0.5293   -0.3651    0.8851 H         1 <0>         0.0673
     26 H6         -2.1181    0.1091    0.0229 H         1 <0>         0.4107
     27 H7         -0.8848   -6.7382   -0.0227 H         1 <0>         0.1406
     28 H8          1.0298   -8.2809   -0.0334 H         1 <0>         0.1334
     29 H9          3.3263   -7.4005   -0.0287 H         1 <0>         0.1314
     30 H10         1.8092   -3.4067   -0.0127 H         1 <0>         0.1407
     31 H11         4.3492   -4.7216   -0.8939 H         1 <0>         0.3906
     32 H12        -4.7039   -4.7059   -1.0174 H         1 <0>         0.0900
     33 H13        -4.4876   -5.2096    0.6721 H         1 <0>         0.0907
     34 H14        -6.5275   -3.7591    0.2578 H         1 <0>         0.0769
     35 H15        -5.4047   -3.1167    1.4855 H         1 <0>         0.0682
     36 H16        -5.3030   -2.3247   -1.4603 H         1 <0>         0.0676
     37 H17        -6.1974   -1.3989   -0.2257 H         1 <0>         0.0730
     38 H18        -4.1760   -0.9917    1.0367 H         1 <0>         0.0747
     39 H19        -3.8370   -0.5688   -0.6549 H         1 <0>         0.0691
@<TRIPOS>BOND
     1    1    2 1
     2    1   21 1
     3    1   22 1
     4    1   23 1
     5    2    3 1
     6    2   24 1
     7    2   25 1
     8    3    4 1
     9    3   26 1
    10    4    9 ar
    11    4    5 ar
    12    5   20 1
    13    5    6 ar
    14    6    7 ar
    15    6   17 1
    16    7    8 ar
    17    8    9 ar
    18    8   10 1
    19   10   15 ar
    20   10   11 ar
    21   11   12 ar
    22   11   27 1
    23   12   13 ar
    24   12   28 1
    25   13   14 ar
    26   13   29 1
    27   14   15 ar
    28   14   16 1
    29   15   30 1
    30   16   31 1
    31   17   18 1
    32   17   32 1
    33   17   33 1
    34   18   19 1
    35   18   34 1
    36   18   35 1
    37   19   20 1
    38   19   36 1
    39   19   37 1
    40   20   38 1
    41   20   39 1
@<TRIPOS>MOLECULE
ZINC62558127
   39    41     0     0     0
SMALL
USER_CHARGES

@<TRIPOS>ATOM
      1 C1         -0.0184    1.5028    0.0103 C.3       1 <0>        -0.1183
      2 C2          0.0021   -0.0041    0.0020 C.ar      1 <0>        -0.0729
      3 C3          0.0057   -0.6887   -1.1989 C.ar      1 <0>        -0.1213
      4 C4          0.0245   -2.0709   -1.2065 C.ar      1 <0>        -0.0892
      5 C5          0.0400   -2.7685   -0.0132 C.ar      1 <0>        -0.1329
      6 C6          0.0373   -2.0839    1.1877 C.ar      1 <0>        -0.0994
      7 C7          0.0229   -0.7016    1.1953 C.ar      1 <0>        -0.1196
      8 C8          0.0595   -4.2753   -0.0215 C.3       1 <0>         0.1299
      9 H1          0.4933   -4.6275   -0.9573 H         1 <0>         0.1545
     10 C9         -1.3495   -4.7962    0.1060 C.2       1 <0>         0.5005
     11 O1         -2.0069   -5.0242   -0.8876 O.2       1 <0>        -0.5039
     12 N1         -1.8767   -5.0084    1.3315 N.am      1 <0>        -0.5495
     13 C10        -1.0834   -4.7711    2.4634 C.ar      1 <0>         0.1486
     14 C11        -1.6586   -4.6632    3.7207 C.ar      1 <0>        -0.1836
     15 C12        -0.8620   -4.4301    4.8263 C.ar      1 <0>        -0.0231
     16 C13         0.5073   -4.3033    4.6841 C.ar      1 <0>        -0.1977
     17 C14         1.0914   -4.4096    3.4286 C.ar      1 <0>         0.2399
     18 C15         0.2941   -4.6434    2.3144 C.ar      1 <0>        -0.0128
     19 O2          0.8462   -4.7474    1.0755 O.3       1 <0>        -0.2926
     20 N2          2.4779   -4.2809    3.2857 N.pl3     1 <0>        -0.8651
     21 C16        -1.4888   -4.3133    6.1918 C.3       1 <0>        -0.1154
     22 C17        -3.2565   -5.4789    1.4760 C.3       1 <0>         0.0736
     23 H2          1.0042    1.8801    0.0026 H         1 <0>         0.0737
     24 H3         -0.5455    1.8639   -0.8728 H         1 <0>         0.0688
     25 H4         -0.5286    1.8543    0.9071 H         1 <0>         0.0682
     26 H5         -0.0064   -0.1436   -2.1312 H         1 <0>         0.1276
     27 H6          0.0266   -2.6057   -2.1448 H         1 <0>         0.1288
     28 H7          0.0491   -2.6289    2.1200 H         1 <0>         0.1319
     29 H8          0.0245   -0.1667    2.1335 H         1 <0>         0.1248
     30 H9         -2.7279   -4.7609    3.8360 H         1 <0>         0.1309
     31 H10         1.1244   -4.1215    5.5516 H         1 <0>         0.1325
     32 H11         3.0326   -4.1171    4.0644 H         1 <0>         0.4022
     33 H12         2.8840   -4.3554    2.4080 H         1 <0>         0.4057
     34 H13        -1.5324   -5.2980    6.6571 H         1 <0>         0.0753
     35 H14        -0.8898   -3.6452    6.8106 H         1 <0>         0.0699
     36 H15        -2.4977   -3.9121    6.0954 H         1 <0>         0.0689
     37 H16        -3.7034   -5.6026    0.4896 H         1 <0>         0.0954
     38 H17        -3.2614   -6.4349    1.9996 H         1 <0>         0.0739
     39 H18        -3.8313   -4.7493    2.0464 H         1 <0>         0.0720
@<TRIPOS>BOND
     1    1    2 1
     2    1   23 1
     3    1   24 1
     4    1   25 1
     5    2    7 ar
     6    2    3 ar
     7    3    4 ar
     8    3   26 1
     9    4    5 ar
    10    4   27 1
    11    5    6 ar
    12    5    8 1
    13    6    7 ar
    14    6   28 1
    15    7   29 1
    16    8    9 1
    17    8   19 1
    18    8   10 1
    19   10   11 2
    20   10   12 am
    21   12   13 1
    22   12   22 1
    23   13   18 ar
    24   13   14 ar
    25   14   15 ar
    26   14   30 1
    27   15   16 ar
    28   15   21 1
    29   16   17 ar
    30   16   31 1
    31   17   18 ar
    32   17   20 1
    33   18   19 1
    34   20   32 1
    35   20   33 1
    36   21   34 1
    37   21   35 1
    38   21   36 1
    39   22   37 1
    40   22   38 1
    41   22   39 1
@<TRIPOS>MOLECULE
ZINC09190420
   50    53     0     0     0
SMALL
USER_CHARGES
N-[(6-chloro-2-phenyl-benzotriazol-5-yl)thiocarbamoyl]-3,5-dimethoxy-benzamide
@<TRIPOS>ATOM
      1 C1          7.9274   15.7019   -0.8355 C.3       1 <0>         0.0239
      2 O1          7.1394   14.5146   -0.7293 O.3       1 <0>        -0.3063
      3 C2          7.8092   13.3355   -0.6389 C.ar      1 <0>         0.1675
      4 C3          7.1059   12.1470   -0.5334 C.ar      1 <0>        -0.1215
      5 C4          7.7948   10.9368   -0.4412 C.ar      1 <0>        -0.0572
      6 C5          9.1902   10.9305   -0.4503 C.ar      1 <0>        -0.1628
      7 C6          9.8853   12.1233   -0.5618 C.ar      1 <0>         0.1659
      8 C7          9.1965   13.3241   -0.6529 C.ar      1 <0>        -0.2710
      9 O2         11.2443   12.1179   -0.5760 O.3       1 <0>        -0.3105
     10 C8         11.8970   13.3843   -0.6868 C.3       1 <0>         0.0241
     11 C9          7.0486    9.6661   -0.3280 C.2       1 <0>         0.5393
     12 O3          5.8335    9.6740   -0.3151 O.2       1 <0>        -0.3884
     13 N1          7.7158    8.4984   -0.2390 N.am      1 <0>        -0.6351
     14 C10         7.0354    7.3396   -0.1357 C.2       1 <0>         0.5119
     15 S1          5.3235    7.3508   -0.1177 S.2       1 <0>        -0.4719
     16 N2          7.7026    6.1720   -0.0467 N.pl3     1 <0>        -0.6186
     17 C11         6.9998    4.9621   -0.0554 C.ar      1 <0>         0.1306
     18 C12         6.0028    4.7774   -0.9687 C.ar      1 <0>         0.0154
     19 C13         5.2937    3.5645   -0.9819 C.ar      1 <0>         0.0393
     20 C14         5.6490    2.5236   -0.0052 C.ar      1 <0>         0.0400
     21 C15         6.6865    2.7759    0.9099 C.ar      1 <0>        -0.0410
     22 C16         7.3368    3.9680    0.8743 C.ar      1 <0>        -0.0124
     23 Cl1         8.6163    4.2684    2.0084 Cl        1 <0>        -0.0472
     24 N3          4.8221    1.5227   -0.2640 N.2       1 <0>        -0.2673
     25 N4          4.0576    1.8571   -1.2444 N.pl3     1 <0>        -0.0422
     26 N5          4.3072    3.0385   -1.6912 N.2       1 <0>        -0.2568
     27 C17         3.0645    1.0224   -1.7726 C.ar      1 <0>         0.1179
     28 C18         2.2808    1.4582   -2.8331 C.ar      1 <0>        -0.0902
     29 C19         1.3031    0.6325   -3.3522 C.ar      1 <0>        -0.1047
     30 C20         1.1036   -0.6269   -2.8168 C.ar      1 <0>        -0.0999
     31 C21         1.8817   -1.0634   -1.7602 C.ar      1 <0>        -0.1053
     32 C22         2.8614   -0.2427   -1.2369 C.ar      1 <0>        -0.0908
     33 H1          7.2706   16.5693   -0.9003 H         1 <0>         0.1071
     34 H2          8.5656   15.7942    0.0433 H         1 <0>         0.0578
     35 H3          8.5471   15.6478   -1.7306 H         1 <0>         0.0578
     36 H4          6.0260   12.1567   -0.5230 H         1 <0>         0.1527
     37 H5          9.7273    9.9966   -0.3749 H         1 <0>         0.1336
     38 H6          9.7417   14.2527   -0.7352 H         1 <0>         0.1423
     39 H7         12.9771   13.2376   -0.6864 H         1 <0>         0.1063
     40 H8         11.5964   13.8679   -1.6163 H         1 <0>         0.0582
     41 H9         11.6154   14.0133    0.1576 H         1 <0>         0.0582
     42 H10         8.6858    8.4921   -0.2492 H         1 <0>         0.4125
     43 H11         8.6701    6.1704    0.0233 H         1 <0>         0.4129
     44 H12         5.7610    5.5570   -1.6758 H         1 <0>         0.1612
     45 H13         6.9645    2.0267    1.6363 H         1 <0>         0.1562
     46 H14         2.4363    2.4415   -3.2519 H         1 <0>         0.1463
     47 H15         0.6965    0.9689   -4.1801 H         1 <0>         0.1406
     48 H16         0.3384   -1.2707   -3.2245 H         1 <0>         0.1358
     49 H17         1.7233   -2.0473   -1.3440 H         1 <0>         0.1404
     50 H18         3.4687   -0.5842   -0.4117 H         1 <0>         0.1456
@<TRIPOS>BOND
     1    1    2 1
     2    1   33 1
     3    1   34 1
     4    1   35 1
     5    2    3 1
     6    3    8 ar
     7    3    4 ar
     8    4    5 ar
     9    4   36 1
    10    5    6 ar
    11    5   11 1
    12    6    7 ar
    13    6   37 1
    14    7    8 ar
    15    7    9 1
    16    8   38 1
    17    9   10 1
    18   10   39 1
    19   10   40 1
    20   10   41 1
    21   11   12 2
    22   11   13 am
    23   13   14 1
    24   13   42 1
    25   14   15 2
    26   14   16 1
    27   16   17 1
    28   16   43 1
    29   17   22 ar
    30   17   18 ar
    31   18   19 ar
    32   18   44 1
    33   19   26 2
    34   19   20 ar
    35   20   21 ar
    36   20   24 2
    37   21   22 ar
    38   21   45 1
    39   22   23 1
    40   24   25 1
    41   25   26 1
    42   25   27 1
    43   27   32 ar
    44   27   28 ar
    45   28   29 ar
    46   28   46 1
    47   29   30 ar
    48   29   47 1
    49   30   31 ar
    50   30   48 1
    51   31   32 ar
    52   31   49 1
    53   32   50 1
@<TRIPOS>MOLECULE
ZINC12007232
   48    51     0     0     0
SMALL
USER_CHARGES
2-bromo-N-[5-(2-furyl)-2-(4-oxo-6-propyl-3H-pyrimidin-2-yl)pyrazol-3-yl]benzamide
@<TRIPOS>ATOM
      1 C1          6.9450    5.1865    1.3983 C.3       1 <0>        -0.1529
      2 C2          5.4434    4.8933    1.4116 C.3       1 <0>        -0.1201
      3 C3          4.9046    4.9264   -0.0201 C.3       1 <0>        -0.0749
      4 C4          3.4256    4.6377   -0.0070 C.2       1 <0>         0.2119
      5 C5          2.5308    5.6671    0.0067 C.2       1 <0>        -0.2977
      6 C6          1.1549    5.3708    0.0187 C.2       1 <0>         0.5380
      7 O1          0.3259    6.2657    0.0311 O.2       1 <0>        -0.5196
      8 N1          0.7705    4.0764    0.0107 N.am      1 <0>        -0.6230
      9 H1         -0.1724    3.8487    0.0148 H         1 <0>         0.4295
     10 C7          1.7096    3.0932    0.0019 C.2       1 <0>         0.6591
     11 N2          2.9939    3.3777   -0.0092 N.2       1 <0>        -0.5799
     12 N3          1.3077    1.7717   -0.0009 N.pl3     1 <0>        -0.3492
     13 C8          2.1314    0.6817   -0.0146 C.2       1 <0>         0.3613
     14 C9          1.3483   -0.4266   -0.0131 C.2       1 <0>        -0.2452
     15 C10         0.0021   -0.0041    0.0020 C.2       1 <0>         0.2179
     16 N4         -0.0158    1.3135    0.0093 N.2       1 <0>        -0.2714
     17 C11        -1.1832   -0.8868    0.0090 C.2       1 <0>         0.0316
     18 C12        -2.4805   -0.4805    0.0290 C.2       1 <0>        -0.1437
     19 C13        -3.2713   -1.6469    0.0251 C.2       1 <0>        -0.2192
     20 C14        -2.4265   -2.6965    0.0122 C.2       1 <0>        -0.0063
     21 O2         -1.1657   -2.2335    0.0026 O.3       1 <0>        -0.1584
     22 N5          3.5234    0.7040   -0.0274 N.am      1 <0>        -0.6337
     23 C15         4.2158   -0.4522   -0.0393 C.2       1 <0>         0.5551
     24 O3          3.6249   -1.5146   -0.0388 O.2       1 <0>        -0.4676
     25 C16         5.6930   -0.4285   -0.0528 C.ar      1 <0>        -0.1149
     26 C17         6.3750    0.7900   -0.0591 C.ar      1 <0>        -0.0773
     27 C18         7.7539    0.8051   -0.0664 C.ar      1 <0>        -0.1104
     28 C19         8.4626   -0.3839   -0.0781 C.ar      1 <0>        -0.0792
     29 C20         7.7946   -1.5947   -0.0777 C.ar      1 <0>        -0.0983
     30 C21         6.4139   -1.6249   -0.0651 C.ar      1 <0>        -0.0379
     31 Br1         5.5018   -3.2813   -0.0652 Br        1 <0>        -0.0020
     32 H2          7.4570    4.4329    0.7999 H         1 <0>         0.0569
     33 H3          7.1189    6.1724    0.9673 H         1 <0>         0.0586
     34 H4          7.3288    5.1629    2.4182 H         1 <0>         0.0597
     35 H5          4.9314    5.6469    2.0100 H         1 <0>         0.0688
     36 H6          5.2694    3.9074    1.8425 H         1 <0>         0.0671
     37 H7          5.4166    4.1729   -0.6185 H         1 <0>         0.0892
     38 H8          5.0786    5.9124   -0.4510 H         1 <0>         0.0960
     39 H9          2.8722    6.6917    0.0086 H         1 <0>         0.1653
     40 H10         1.6939   -1.4498   -0.0222 H         1 <0>         0.1998
     41 H11        -2.8362    0.5392    0.0430 H         1 <0>         0.1577
     42 H12        -4.3504   -1.6912    0.0345 H         1 <0>         0.1576
     43 H13        -2.7152   -3.7372    0.0095 H         1 <0>         0.2132
     44 H14         3.9949    1.5518   -0.0277 H         1 <0>         0.4287
     45 H15         5.8237    1.7187   -0.0546 H         1 <0>         0.1349
     46 H16         8.2822    1.7470   -0.0675 H         1 <0>         0.1401
     47 H17         9.5424   -0.3658   -0.0880 H         1 <0>         0.1410
     48 H18         8.3537   -2.5186   -0.0876 H         1 <0>         0.1439
@<TRIPOS>BOND
     1    1    2 1
     2    1   32 1
     3    1   33 1
     4    1   34 1
     5    2    3 1
     6    2   35 1
     7    2   36 1
     8    3    4 1
     9    3   37 1
    10    3   38 1
    11    4   11 1
    12    4    5 2
    13    5    6 1
    14    5   39 1
    15    6    7 2
    16    6    8 am
    17    8    9 1
    18    8   10 1
    19   10   11 2
    20   10   12 1
    21   12   16 1
    22   12   13 1
    23   13   14 2
    24   13   22 1
    25   14   15 1
    26   14   40 1
    27   15   16 2
    28   15   17 1
    29   17   21 1
    30   17   18 2
    31   18   19 1
    32   18   41 1
    33   19   20 2
    34   19   42 1
    35   20   21 1
    36   20   43 1
    37   22   23 am
    38   22   44 1
    39   23   24 2
    40   23   25 1
    41   25   30 ar
    42   25   26 ar
    43   26   27 ar
    44   26   45 1
    45   27   28 ar
    46   27   46 1
    47   28   29 ar
    48   28   47 1
    49   29   30 ar
    50   29   48 1
    51   30   31 1
@<TRIPOS>MOLECULE
ZINC20853316
   63    67     0     0     0
SMALL
USER_CHARGES
[(1S)-2-[(1,5-dimethyl-3-oxo-2-phenyl-pyrazol-4-yl)amino]-1-methyl-2-oxo-ethyl] 6,7,8,9-tetrahydro-5H-carbazole-3-carboxylate
@<TRIPOS>ATOM
      1 C1        -14.4228    1.5723   -2.1843 C.3       1 <0>        -0.1009
      2 C2        -14.5482    0.9060   -0.8384 C.2       1 <0>         0.1826
      3 C3        -13.7797   -0.1105   -0.3869 C.2       1 <0>        -0.0765
      4 C4        -14.2517   -0.4472    0.9566 C.2       1 <0>         0.5435
      5 O1        -13.8084   -1.3177    1.6839 O.2       1 <0>        -0.5118
      6 N1        -15.2694    0.3929    1.2374 N.am      1 <0>        -0.3670
      7 N2        -15.4602    1.2287    0.1312 N.pl3     1 <0>        -0.3938
      8 C5        -16.4734    2.2817    0.0273 C.3       1 <0>         0.0924
      9 C6        -16.0093    0.4190    2.4238 C.ar      1 <0>         0.1494
     10 C7        -16.2419    1.6249    3.0725 C.ar      1 <0>        -0.1313
     11 C8        -16.9775    1.6478    4.2412 C.ar      1 <0>        -0.1020
     12 C9        -17.4724    0.4706    4.7717 C.ar      1 <0>        -0.1175
     13 C10       -17.2381   -0.7324    4.1311 C.ar      1 <0>        -0.0982
     14 C11       -16.5082   -0.7616    2.9590 C.ar      1 <0>        -0.1036
     15 N3        -12.7247   -0.7336   -1.0828 N.am      1 <0>        -0.6445
     16 C12       -11.4903   -0.7703   -0.5431 C.2       1 <0>         0.5214
     17 O2        -11.2656   -0.1881    0.4973 O.2       1 <0>        -0.4969
     18 C13       -10.3891   -1.5344   -1.2320 C.3       1 <0>         0.0768
     19 H1        -10.1879   -1.0962   -2.2207 H         1 <0>         0.1143
     20 C14       -10.7858   -3.0075   -1.3477 C.3       1 <0>        -0.1658
     21 O3         -9.1651   -1.4220   -0.4590 O.3       1 <0>        -0.3272
     22 C15        -8.0042   -1.4692   -1.1413 C.2       1 <0>         0.5153
     23 O4         -8.0144   -1.6008   -2.3491 O.2       1 <0>        -0.5136
     24 C16        -6.7209   -1.3613   -0.4218 C.ar      1 <0>        -0.1623
     25 C17        -6.7283   -1.2107    0.9697 C.ar      1 <0>        -0.0470
     26 C18        -5.5745   -1.1047    1.6998 C.ar      1 <0>        -0.1423
     27 C19        -4.3666   -1.1534    1.0014 C.ar      1 <0>         0.1262
     28 C20        -4.3455   -1.3058   -0.4111 C.ar      1 <0>        -0.1240
     29 C21        -5.5256   -1.4123   -1.1463 C.ar      1 <0>         0.0139
     30 C22        -2.9472   -1.3148   -0.7907 C.2       1 <0>        -0.1558
     31 C23        -2.2283   -1.1778    0.3438 C.2       1 <0>         0.0781
     32 N4         -3.0724   -1.0792    1.4194 N.pl3     1 <0>        -0.5916
     33 H2         -2.8460   -0.9576    2.4890 H         1 <0>         0.4439
     34 C24        -0.7181   -1.1449    0.3813 C.3       1 <0>        -0.0576
     35 C25        -0.1844   -1.7018   -0.9430 C.3       1 <0>        -0.1154
     36 C26        -0.8841   -0.9990   -2.1099 C.3       1 <0>        -0.1208
     37 C27        -2.3488   -1.4488   -2.1678 C.3       1 <0>        -0.0489
     38 H3        -13.6040    1.1041   -2.7503 H         1 <0>         0.0951
     39 H4        -14.2076    2.6420   -2.0452 H         1 <0>         0.0887
     40 H5        -15.3653    1.4570   -2.7397 H         1 <0>         0.0880
     41 H6        -17.0642    2.3148    0.9546 H         1 <0>         0.0942
     42 H7        -17.1376    2.0688   -0.8233 H         1 <0>         0.0848
     43 H8        -15.9791    3.2521   -0.1274 H         1 <0>         0.0842
     44 H9        -15.8516    2.5441    2.6613 H         1 <0>         0.1268
     45 H10       -17.1625    2.5857    4.7437 H         1 <0>         0.1324
     46 H11       -18.0435    0.4907    5.6881 H         1 <0>         0.1306
     47 H12       -17.6266   -1.6499    4.5476 H         1 <0>         0.1340
     48 H13       -16.3258   -1.7013    2.4590 H         1 <0>         0.1310
     49 H14       -12.9086   -1.1901   -2.0666 H         1 <0>         0.4274
     50 H15        -9.9820   -3.5653   -1.8505 H         1 <0>         0.0771
     51 H16       -11.7130   -3.0926   -1.9333 H         1 <0>         0.0826
     52 H17       -10.9475   -3.4237   -0.3424 H         1 <0>         0.0769
     53 H18        -7.6766   -1.1765    1.4853 H         1 <0>         0.1384
     54 H19        -5.5980   -0.9888    2.7733 H         1 <0>         0.1355
     55 H20        -5.5171   -1.5280   -2.2200 H         1 <0>         0.1442
     56 H21        -0.3772   -0.1078    0.5161 H         1 <0>         0.0819
     57 H22        -0.3586   -1.7608    1.2188 H         1 <0>         0.0775
     58 H23         0.8996   -1.5251   -1.0048 H         1 <0>         0.0737
     59 H24        -0.3831   -2.7825   -0.9930 H         1 <0>         0.0695
     60 H25        -0.8390    0.0901   -1.9622 H         1 <0>         0.0660
     61 H26        -0.3806   -1.2624   -3.0517 H         1 <0>         0.0709
     62 H27        -2.4059   -2.4984   -2.4918 H         1 <0>         0.0733
     63 H28        -2.9074   -0.8163   -2.8735 H         1 <0>         0.0739
@<TRIPOS>BOND
     1    1    2 1
     2    1   38 1
     3    1   39 1
     4    1   40 1
     5    2    7 1
     6    2    3 2
     7    3    4 1
     8    3   15 1
     9    4    5 2
    10    4    6 am
    11    6    7 1
    12    6    9 1
    13    7    8 1
    14    8   41 1
    15    8   42 1
    16    8   43 1
    17    9   14 ar
    18    9   10 ar
    19   10   11 ar
    20   10   44 1
    21   11   12 ar
    22   11   45 1
    23   12   13 ar
    24   12   46 1
    25   13   14 ar
    26   13   47 1
    27   14   48 1
    28   15   16 am
    29   15   49 1
    30   16   17 2
    31   16   18 1
    32   18   19 1
    33   18   20 1
    34   18   21 1
    35   20   50 1
    36   20   51 1
    37   20   52 1
    38   21   22 1
    39   22   23 2
    40   22   24 1
    41   24   29 ar
    42   24   25 ar
    43   25   26 ar
    44   25   53 1
    45   26   27 ar
    46   26   54 1
    47   27   32 1
    48   27   28 ar
    49   28   29 ar
    50   28   30 1
    51   29   55 1
    52   30   37 1
    53   30   31 2
    54   31   32 1
    55   31   34 1
    56   32   33 1
    57   34   35 1
    58   34   56 1
    59   34   57 1
    60   35   36 1
    61   35   58 1
    62   35   59 1
    63   36   37 1
    64   36   60 1
    65   36   61 1
    66   37   62 1
    67   37   63 1
@<TRIPOS>MOLECULE
ZINC39562081
   58    61     0     0     0
SMALL
USER_CHARGES

@<TRIPOS>ATOM
      1 C1          1.2631    1.2272   -0.1568 C.3       1 <0>        -0.1114
      2 C2          0.6270   -0.1367   -0.0785 C.ar      1 <0>        -0.1002
      3 C3          0.0397   -0.6893   -1.2018 C.ar      1 <0>        -0.0952
      4 C4         -0.5457   -1.9400   -1.1360 C.ar      1 <0>        -0.1835
      5 C5         -0.5452   -2.6435    0.0576 C.ar      1 <0>         0.0952
      6 C6          0.0468   -2.0876    1.1894 C.ar      1 <0>         0.1197
      7 C7          0.6372   -0.8345    1.1143 C.ar      1 <0>        -0.0946
      8 N1          0.0504   -2.7945    2.3993 N.am      1 <0>        -0.6544
      9 C8          0.1491   -2.1300    3.5677 C.2       1 <0>         0.5103
     10 O1          0.1336   -0.9172    3.5789 O.2       1 <0>        -0.5169
     11 C9          0.2787   -2.8938    4.8603 C.3       1 <0>         0.1050
     12 N2          0.3689   -1.9508    5.9778 N.am      1 <0>        -0.7150
     13 C10         0.4914   -2.4102    7.2390 C.2       1 <0>         0.5209
     14 O2          0.5270   -3.6042    7.4487 O.2       1 <0>        -0.5133
     15 C11         0.5841   -1.4401    8.3885 C.3       1 <0>         0.0489
     16 O3          0.7070   -2.1644    9.6142 O.3       1 <0>        -0.2656
     17 C12         0.8020   -1.4359   10.7521 C.ar      1 <0>         0.4153
     18 C13         0.9328   -2.0813   12.0107 C.ar      1 <0>        -0.1954
     19 C14         0.9886   -3.5145   12.3050 C.2       1 <0>        -0.0729
     20 C15         1.1159   -3.8685   13.5997 C.2       1 <0>        -0.1455
     21 S1          1.1686   -2.3393   14.4952 S.3       1 <0>         0.1253
     22 C16         1.0217   -1.2222   13.1254 C.ar      1 <0>         0.1377
     23 N3          0.9867    0.0885   12.9896 N.ar      1 <0>        -0.4982
     24 C17         0.8652    0.6297   11.7930 C.ar      1 <0>         0.3569
     25 N4          0.7797   -0.1156   10.7052 N.ar      1 <0>        -0.5873
     26 C18         1.1962   -5.2571   14.1573 C.3       1 <0>        -0.0357
     27 C19         1.4873   -6.2268   13.0031 C.3       1 <0>        -0.0874
     28 H1          2.5176   -6.1008   12.6706 H         1 <0>         0.0775
     29 C20         0.5323   -5.9141   11.8473 C.3       1 <0>        -0.1164
     30 C21         0.9085   -4.5757   11.2108 C.3       1 <0>        -0.0575
     31 C22         1.2728   -7.6662   13.4755 C.3       1 <0>        -0.1473
     32 O4         -1.1214   -3.8733    0.1242 O.3       1 <0>        -0.3217
     33 C23        -1.7094   -4.3800   -1.0756 C.3       1 <0>         0.0292
     34 H2          2.3115    1.1237   -0.4363 H         1 <0>         0.0702
     35 H3          0.7451    1.8272   -0.9051 H         1 <0>         0.0672
     36 H4          1.1926    1.7173    0.8142 H         1 <0>         0.0681
     37 H5          0.0379   -0.1422   -2.1330 H         1 <0>         0.1276
     38 H6         -1.0040   -2.3685   -2.0151 H         1 <0>         0.1337
     39 H7          1.1009   -0.4026    1.9888 H         1 <0>         0.1525
     40 H8         -0.0180   -3.7621    2.3959 H         1 <0>         0.4192
     41 H9         -0.5942   -3.5330    4.9937 H         1 <0>         0.1072
     42 H10         1.1781   -3.5088    4.8304 H         1 <0>         0.1083
     43 H11         0.3404   -0.9959    5.8101 H         1 <0>         0.4158
     44 H12         1.4570   -0.8010    8.2551 H         1 <0>         0.1066
     45 H13        -0.3153   -0.8252    8.4185 H         1 <0>         0.1065
     46 H14         0.8385    1.7053   11.6999 H         1 <0>         0.2144
     47 H15         1.9985   -5.3112   14.8933 H         1 <0>         0.0865
     48 H16         0.2483   -5.5195   14.6270 H         1 <0>         0.0894
     49 H17         0.5998   -6.7030   11.0982 H         1 <0>         0.0736
     50 H18        -0.4887   -5.8615   12.2252 H         1 <0>         0.0662
     51 H19         0.1492   -4.2921   10.4820 H         1 <0>         0.0879
     52 H20         1.8761   -4.6647   10.7170 H         1 <0>         0.0805
     53 H21         0.2405   -7.7914   13.8022 H         1 <0>         0.0576
     54 H22         1.4799   -8.3527   12.6546 H         1 <0>         0.0600
     55 H23         1.9452   -7.8799   14.3064 H         1 <0>         0.0580
     56 H24        -2.4982   -3.7046   -1.4070 H         1 <0>         0.0569
     57 H25        -0.9465   -4.4556   -1.8504 H         1 <0>         0.0571
     58 H26        -2.1322   -5.3663   -0.8846 H         1 <0>         0.1022
@<TRIPOS>BOND
     1    1    2 1
     2    1   34 1
     3    1   35 1
     4    1   36 1
     5    2    7 ar
     6    2    3 ar
     7    3    4 ar
     8    3   37 1
     9    4    5 ar
    10    4   38 1
    11    5    6 ar
    12    5   32 1
    13    6    7 ar
    14    6    8 1
    15    7   39 1
    16    8    9 am
    17    8   40 1
    18    9   10 2
    19    9   11 1
    20   11   12 1
    21   11   41 1
    22   11   42 1
    23   12   13 am
    24   12   43 1
    25   13   14 2
    26   13   15 1
    27   15   16 1
    28   15   44 1
    29   15   45 1
    30   16   17 1
    31   17   25 ar
    32   17   18 ar
    33   18   22 ar
    34   18   19 1
    35   19   30 1
    36   19   20 2
    37   20   21 1
    38   20   26 1
    39   21   22 1
    40   22   23 ar
    41   23   24 ar
    42   24   25 ar
    43   24   46 1
    44   26   27 1
    45   26   47 1
    46   26   48 1
    47   27   28 1
    48   27   29 1
    49   27   31 1
    50   29   30 1
    51   29   49 1
    52   29   50 1
    53   30   51 1
    54   30   52 1
    55   31   53 1
    56   31   54 1
    57   31   55 1
    58   32   33 1
    59   33   56 1
    60   33   57 1
    61   33   58 1
@<TRIPOS>MOLECULE
ZINC39980066
   58    61     0     0     0
SMALL
USER_CHARGES

@<TRIPOS>ATOM
      1 C1          0.3650    1.4961   -0.5828 C.3       1 <0>        -0.1450
      2 C2          0.4310   -0.0322   -0.6124 C.3       1 <0>        -0.0549
      3 C3          1.4208   -0.4791   -1.6901 C.3       1 <0>        -0.1450
      4 C4          0.8870   -0.5415    0.7307 C.ar      1 <0>        -0.1001
      5 C5          2.1174   -0.1578    1.2324 C.ar      1 <0>        -0.0810
      6 C6          2.5383   -0.6220    2.4628 C.ar      1 <0>        -0.1443
      7 C7          1.7239   -1.4758    3.1972 C.ar      1 <0>         0.2074
      8 C8          0.4882   -1.8592    2.6898 C.ar      1 <0>        -0.1448
      9 C9          0.0716   -1.3867    1.4610 C.ar      1 <0>        -0.0796
     10 N1          2.1462   -1.9474    4.4411 N.pl3     1 <0>        -0.4891
     11 C10         1.4143   -2.8578    5.3419 C.3       1 <0>         0.3534
     12 H1          0.4719   -2.4115    5.6591 H         1 <0>         0.1369
     13 N2          2.3355   -3.0004    6.4853 N.pl3     1 <0>        -0.6497
     14 N3          3.4524   -2.2147    6.1775 N.2       1 <0>         0.0208
     15 N4          3.3540   -1.6585    5.0873 N.2       1 <0>         0.0062
     16 S1          1.1259   -4.4594    4.5404 S.3       1 <0>        -0.1693
     17 C11         2.7932   -5.0757    4.1787 C.3       1 <0>        -0.1168
     18 C12         2.6965   -6.4188    3.5021 C.2       1 <0>         0.5343
     19 O1          1.6098   -6.9117    3.2853 O.2       1 <0>        -0.5022
     20 N5          3.8176   -7.0723    3.1380 N.am      1 <0>        -0.6081
     21 C13         5.1240   -6.4272    3.2915 C.3       1 <0>         0.0646
     22 C14         3.7298   -8.4275    2.5887 C.3       1 <0>         0.1537
     23 C15         3.4502   -8.3530    1.1097 C.2       1 <0>        -0.0238
     24 C16         2.1789   -8.4073    0.6413 C.2       1 <0>        -0.1758
     25 C17         1.9288   -8.3366   -0.7460 C.2       1 <0>         0.5345
     26 O2          0.7784   -8.3868   -1.1456 O.2       1 <0>        -0.5311
     27 N6          2.9276   -8.2148   -1.6378 N.am      1 <0>        -0.6314
     28 H2          2.7204   -8.1690   -2.5843 H         1 <0>         0.4156
     29 C18         4.2420   -8.1536   -1.2263 C.ar      1 <0>         0.1838
     30 C19         4.5448   -8.2143    0.1473 C.ar      1 <0>        -0.1158
     31 C20         5.8761   -8.1472    0.5704 C.ar      1 <0>        -0.0692
     32 C21         6.8746   -8.0177   -0.3531 C.ar      1 <0>        -0.1457
     33 C22         6.5796   -7.9523   -1.7078 C.ar      1 <0>        -0.0658
     34 C23         5.2755   -8.0277   -2.1483 C.ar      1 <0>        -0.1594
     35 H3          1.3529    1.8981   -0.3580 H         1 <0>         0.0563
     36 H4          0.0352    1.8644   -1.5542 H         1 <0>         0.0579
     37 H5         -0.3401    1.8145    0.1850 H         1 <0>         0.0561
     38 H6         -0.5569   -0.4343   -0.8371 H         1 <0>         0.0778
     39 H7          2.4087   -0.0771   -1.4654 H         1 <0>         0.0561
     40 H8          1.4678   -1.5679   -1.7113 H         1 <0>         0.0553
     41 H9          1.0910   -0.1108   -2.6616 H         1 <0>         0.0580
     42 H10         2.7499    0.5054    0.6610 H         1 <0>         0.1273
     43 H11         3.4994   -0.3223    2.8539 H         1 <0>         0.1312
     44 H12        -0.1471   -2.5228    3.2576 H         1 <0>         0.1306
     45 H13        -0.8904   -1.6807    1.0680 H         1 <0>         0.1291
     46 H14         2.1956   -3.5295    7.2862 H         1 <0>         0.4595
     47 H15         3.3053   -4.3735    3.5208 H         1 <0>         0.1081
     48 H16         3.3529   -5.1767    5.1085 H         1 <0>         0.1118
     49 H17         5.5711   -6.7327    4.2375 H         1 <0>         0.0669
     50 H18         5.7748   -6.7246    2.4692 H         1 <0>         0.0812
     51 H19         4.9980   -5.3446    3.2819 H         1 <0>         0.0742
     52 H20         4.6729   -8.9485    2.7543 H         1 <0>         0.1008
     53 H21         2.9238   -8.9689    3.0840 H         1 <0>         0.1032
     54 H22         1.3547   -8.5053    1.3322 H         1 <0>         0.1618
     55 H23         6.1138   -8.1971    1.6228 H         1 <0>         0.1336
     56 H24         7.9026   -7.9656   -0.0261 H         1 <0>         0.1311
     57 H25         7.3808   -7.8496   -2.4248 H         1 <0>         0.1335
     58 H26         5.0564   -7.9761   -3.2046 H         1 <0>         0.1351
@<TRIPOS>BOND
     1    1    2 1
     2    1   35 1
     3    1   36 1
     4    1   37 1
     5    2    3 1
     6    2    4 1
     7    2   38 1
     8    3   39 1
     9    3   40 1
    10    3   41 1
    11    4    9 ar
    12    4    5 ar
    13    5    6 ar
    14    5   42 1
    15    6    7 ar
    16    6   43 1
    17    7    8 ar
    18    7   10 1
    19    8    9 ar
    20    8   44 1
    21    9   45 1
    22   10   15 1
    23   10   11 1
    24   11   12 1
    25   11   13 1
    26   11   16 1
    27   13   14 1
    28   13   46 1
    29   14   15 2
    30   16   17 1
    31   17   18 1
    32   17   47 1
    33   17   48 1
    34   18   19 2
    35   18   20 am
    36   20   21 1
    37   20   22 1
    38   21   49 1
    39   21   50 1
    40   21   51 1
    41   22   23 1
    42   22   52 1
    43   22   53 1
    44   23   30 1
    45   23   24 2
    46   24   25 1
    47   24   54 1
    48   25   26 2
    49   25   27 am
    50   27   28 1
    51   27   29 1
    52   29   34 ar
    53   29   30 ar
    54   30   31 ar
    55   31   32 ar
    56   31   55 1
    57   32   33 ar
    58   32   56 1
    59   33   34 ar
    60   33   57 1
    61   34   58 1
@<TRIPOS>MOLECULE
ZINC06832007
   50    53     0     0     0
SMALL
USER_CHARGES
N-(1,3-dioxo-2,4-diazaspiro[4.5]dec-2-yl)-2-(2-methylindolin-1-yl)-acetamide
@<TRIPOS>ATOM
      1 C1         -4.3310    0.5335   -1.4412 C.3       1 <0>        -0.1767
      2 C2         -4.0977   -0.2748   -2.7191 C.3       1 <0>         0.0730
      3 H1         -3.2941    0.1636   -3.3109 H         1 <0>         0.1138
      4 C3         -5.3992   -0.3800   -3.5468 C.3       1 <0>        -0.0811
      5 C4         -6.0057   -1.6795   -3.0558 C.ar      1 <0>        -0.1329
      6 C5         -7.2793   -2.1960   -3.1712 C.ar      1 <0>        -0.0801
      7 C6         -7.5810   -3.4268   -2.6174 C.ar      1 <0>        -0.1403
      8 C7         -6.6031   -4.1392   -1.9472 C.ar      1 <0>        -0.0938
      9 C8         -5.3273   -3.6285   -1.8316 C.ar      1 <0>        -0.1381
     10 C9         -5.0146   -2.3897   -2.3892 C.ar      1 <0>         0.0923
     11 N1         -3.8026   -1.6884   -2.3993 N.pl3     1 <0>        -0.4499
     12 C10        -3.1171   -1.8033   -1.1051 C.3       1 <0>         0.0365
     13 C11        -1.7557   -1.1639   -1.1993 C.2       1 <0>         0.5223
     14 O1         -1.3494   -0.7570   -2.2671 O.2       1 <0>        -0.4883
     15 N2         -0.9897   -1.0442   -0.0968 N.am      1 <0>        -0.5088
     16 N3          0.2759   -0.4498   -0.1844 N.am      1 <0>        -0.3765
     17 C12         1.4386   -1.1331   -0.1483 C.2       1 <0>         0.5325
     18 O2          1.5823   -2.3318   -0.0380 O.2       1 <0>        -0.4464
     19 C13         2.5245   -0.0890   -0.2740 C.3       1 <0>         0.1391
     20 C14         3.3511   -0.3310   -1.5321 C.3       1 <0>        -0.1170
     21 C15         4.4256    0.7522   -1.6562 C.3       1 <0>        -0.1169
     22 C16         5.3264    0.7191   -0.4198 C.3       1 <0>        -0.1263
     23 C17         4.4871    0.9876    0.8311 C.3       1 <0>        -0.1171
     24 C18         3.4128   -0.0946    0.9652 C.3       1 <0>        -0.1157
     25 N4          1.7903    1.1785   -0.3759 N.am      1 <0>        -0.7073
     26 C19         0.4815    0.8666   -0.3141 C.2       1 <0>         0.7077
     27 O3         -0.4126    1.6876   -0.3746 O.2       1 <0>        -0.5241
     28 H2         -3.4378    0.4933   -0.8177 H         1 <0>         0.0607
     29 H3         -4.5462    1.5700   -1.7011 H         1 <0>         0.0756
     30 H4         -5.1750    0.1133   -0.8945 H         1 <0>         0.0609
     31 H5         -6.0610    0.4595   -3.3340 H         1 <0>         0.0848
     32 H6         -5.1759   -0.4333   -4.6124 H         1 <0>         0.0903
     33 H7         -8.0421   -1.6384   -3.6944 H         1 <0>         0.1229
     34 H8         -8.5785   -3.8309   -2.7077 H         1 <0>         0.1255
     35 H9         -6.8395   -5.0994   -1.5130 H         1 <0>         0.1269
     36 H10        -4.5681   -4.1901   -1.3074 H         1 <0>         0.1212
     37 H11        -3.0069   -2.8559   -0.8446 H         1 <0>         0.1190
     38 H12        -3.7033   -1.2984   -0.3374 H         1 <0>         0.0916
     39 H13        -1.3147   -1.3696    0.7572 H         1 <0>         0.4269
     40 H14         3.8274   -1.3095   -1.4709 H         1 <0>         0.0928
     41 H15         2.7003   -0.2985   -2.4059 H         1 <0>         0.0786
     42 H16         3.9493    1.7296   -1.7329 H         1 <0>         0.0659
     43 H17         5.0253    0.5691   -2.5478 H         1 <0>         0.0777
     44 H18         6.0970    1.4845   -0.5113 H         1 <0>         0.0712
     45 H19         5.7960   -0.2611   -0.3386 H         1 <0>         0.0699
     46 H20         4.0107    1.9643    0.7465 H         1 <0>         0.0660
     47 H21         5.1305    0.9720    1.7109 H         1 <0>         0.0775
     48 H22         2.8053    0.1044    1.8481 H         1 <0>         0.0769
     49 H23         3.8902   -1.0693    1.0652 H         1 <0>         0.0935
     50 H24         2.1723    2.0652   -0.4693 H         1 <0>         0.4439
@<TRIPOS>BOND
     1    1    2 1
     2    1   28 1
     3    1   29 1
     4    1   30 1
     5    2    3 1
     6    2   11 1
     7    2    4 1
     8    4    5 1
     9    4   31 1
    10    4   32 1
    11    5   10 ar
    12    5    6 ar
    13    6    7 ar
    14    6   33 1
    15    7    8 ar
    16    7   34 1
    17    8    9 ar
    18    8   35 1
    19    9   10 ar
    20    9   36 1
    21   10   11 1
    22   11   12 1
    23   12   13 1
    24   12   37 1
    25   12   38 1
    26   13   14 2
    27   13   15 am
    28   15   16 1
    29   15   39 1
    30   16   26 am
    31   16   17 am
    32   17   18 2
    33   17   19 1
    34   19   24 1
    35   19   20 1
    36   19   25 1
    37   20   21 1
    38   20   40 1
    39   20   41 1
    40   21   22 1
    41   21   42 1
    42   21   43 1
    43   22   23 1
    44   22   44 1
    45   22   45 1
    46   23   24 1
    47   23   46 1
    48   23   47 1
    49   24   48 1
    50   24   49 1
    51   25   26 am
    52   25   50 1
    53   26   27 2
@<TRIPOS>MOLECULE
ZINC13004845
   45    48     0     0     0
SMALL
USER_CHARGES
3-(methoxymethyl)-N-[(2S)-2-methyl-3-oxo-4H-1,4-benzoxazin-6-yl]benzofuran-2-carboxamide
@<TRIPOS>ATOM
      1 C1          6.4904    6.9514    0.3740 C.3       1 <0>        -0.1780
      2 C2          5.5553    8.1114    0.0265 C.3       1 <0>         0.0786
      3 H1          6.1469    8.9863   -0.2431 H         1 <0>         0.1532
      4 C3          4.6807    7.7197   -1.1373 C.2       1 <0>         0.4965
      5 O1          5.0338    7.9604   -2.2724 O.2       1 <0>        -0.5056
      6 N1          3.5024    7.0991   -0.9108 N.am      1 <0>        -0.6571
      7 C4          3.1015    6.8631    0.4119 C.ar      1 <0>         0.1136
      8 C5          2.0841    5.9672    0.6926 C.ar      1 <0>        -0.1243
      9 C6          1.7015    5.7488    2.0097 C.ar      1 <0>         0.1510
     10 C7          2.3344    6.4320    3.0401 C.ar      1 <0>        -0.1279
     11 C8          3.3545    7.3220    2.7601 C.ar      1 <0>        -0.0861
     12 C9          3.7390    7.5428    1.4489 C.ar      1 <0>         0.0691
     13 O2          4.7383    8.4199    1.1588 O.3       1 <0>        -0.2964
     14 N2          0.6732    4.8437    2.2986 N.am      1 <0>        -0.6581
     15 C10         0.5273    3.7296    1.5543 C.2       1 <0>         0.6054
     16 O3          1.2348    3.5514    0.5806 O.2       1 <0>        -0.4871
     17 C11        -0.4863    2.7301    1.9187 C.2       1 <0>        -0.0171
     18 C12        -0.7220    1.5744    1.2452 C.2       1 <0>        -0.0706
     19 C13        -1.8023    0.8998    1.9640 C.ar      1 <0>        -0.1335
     20 C14        -2.4866   -0.3051    1.7860 C.ar      1 <0>        -0.0549
     21 C15        -3.4757   -0.6576    2.6601 C.ar      1 <0>        -0.1343
     22 C16        -3.8044    0.1732    3.7227 C.ar      1 <0>        -0.0770
     23 C17        -3.1418    1.3660    3.9154 C.ar      1 <0>        -0.1104
     24 C18        -2.1314    1.7458    3.0393 C.ar      1 <0>         0.0746
     25 O4         -1.3258    2.8235    2.9711 O.3       1 <0>        -0.1817
     26 C19        -0.0100    1.0835    0.0110 C.3       1 <0>         0.1206
     27 O5         -0.6919    1.5569   -1.1522 O.3       1 <0>        -0.3807
     28 C20        -0.0948    1.1455   -2.3836 C.3       1 <0>         0.0323
     29 H2          5.8992    6.0767    0.6448 H         1 <0>         0.0663
     30 H3          7.1134    6.7160   -0.4889 H         1 <0>         0.0836
     31 H4          7.1249    7.2352    1.2136 H         1 <0>         0.0880
     32 H5          2.9422    6.8207   -1.6521 H         1 <0>         0.4177
     33 H6          1.5894    5.4402   -0.1099 H         1 <0>         0.1517
     34 H7          2.0320    6.2640    4.0632 H         1 <0>         0.1410
     35 H8          3.8479    7.8486    3.5637 H         1 <0>         0.1476
     36 H9          0.0658    5.0184    3.0344 H         1 <0>         0.4211
     37 H10        -2.2350   -0.9550    0.9608 H         1 <0>         0.1316
     38 H11        -4.0051   -1.5890    2.5237 H         1 <0>         0.1353
     39 H12        -4.5885   -0.1184    4.4057 H         1 <0>         0.1410
     40 H13        -3.4069    2.0044    4.7452 H         1 <0>         0.1383
     41 H14         0.0011   -0.0064    0.0072 H         1 <0>         0.0628
     42 H15         1.0138    1.4574    0.0093 H         1 <0>         0.0839
     43 H16        -0.0854    0.0569   -2.4370 H         1 <0>         0.0423
     44 H17        -0.6709    1.5453   -3.2181 H         1 <0>         0.0884
     45 H18         0.9273    1.5207   -2.4350 H         1 <0>         0.0455
@<TRIPOS>BOND
     1    1    2 1
     2    1   29 1
     3    1   30 1
     4    1   31 1
     5    2    3 1
     6    2   13 1
     7    2    4 1
     8    4    5 2
     9    4    6 am
    10    6    7 1
    11    6   32 1
    12    7   12 ar
    13    7    8 ar
    14    8    9 ar
    15    8   33 1
    16    9   10 ar
    17    9   14 1
    18   10   11 ar
    19   10   34 1
    20   11   12 ar
    21   11   35 1
    22   12   13 1
    23   14   15 am
    24   14   36 1
    25   15   16 2
    26   15   17 1
    27   17   25 1
    28   17   18 2
    29   18   19 1
    30   18   26 1
    31   19   24 ar
    32   19   20 ar
    33   20   21 ar
    34   20   37 1
    35   21   22 ar
    36   21   38 1
    37   22   23 ar
    38   22   39 1
    39   23   24 ar
    40   23   40 1
    41   24   25 1
    42   26   27 1
    43   26   41 1
    44   26   42 1
    45   27   28 1
    46   28   43 1
    47   28   44 1
    48   28   45 1
@<TRIPOS>MOLECULE
ZINC41055665
   34    36     0     0     0
SMALL
USER_CHARGES

@<TRIPOS>ATOM
      1 C1          0.0942    1.1055   -0.6623 C.ar      1 <0>        -0.1151
      2 C2          1.2643    1.8288   -0.7304 C.ar      1 <0>        -0.0374
      3 C3          2.4433    1.2834   -0.2222 C.ar      1 <0>        -0.1568
      4 C4          2.4384    0.0032    0.3562 C.ar      1 <0>         0.1438
      5 C5          1.2424   -0.7117    0.4153 C.ar      1 <0>         0.0583
      6 C6          0.0847   -0.1592   -0.0920 C.ar      1 <0>        -0.0880
      7 F1          1.2178   -1.9441    0.9682 F         1 <0>        -0.1291
      8 N1          3.6030   -0.5376    0.8582 N.pl3     1 <0>        -0.5839
      9 C7          4.7758    0.1082    0.8252 C.2       1 <0>         0.2738
     10 C8          4.9052    1.3702    0.2826 C.2       1 <0>        -0.3615
     11 C9          3.7148    2.0286   -0.2782 C.2       1 <0>         0.4400
     12 O1          3.7770    3.1424   -0.7687 O.2       1 <0>        -0.4781
     13 C10         6.2114    2.0466    0.2660 C.2       1 <0>         0.5963
     14 O2          7.2100    1.4498    0.6218 O.2       1 <0>        -0.5251
     15 N2          6.3018    3.3275   -0.1433 N.am      1 <0>        -0.6546
     16 C11         7.5553    3.9387   -0.2574 C.ar      1 <0>         0.2239
     17 C12         8.6995    3.1618   -0.3825 C.ar      1 <0>        -0.1338
     18 C13         9.9354    3.7681   -0.4949 C.ar      1 <0>        -0.0231
     19 C14        10.0348    5.1474   -0.4828 C.ar      1 <0>        -0.0683
     20 C15         8.8981    5.9246   -0.3580 C.ar      1 <0>        -0.0192
     21 C16         7.6575    5.3246   -0.2513 C.ar      1 <0>        -0.0833
     22 Cl1         6.2296    6.3008   -0.1029 Cl        1 <0>        -0.0295
     23 N3         11.3613    5.7932   -0.6035 N.pl3     1 <0>         0.0386
     24 O3         12.3561    5.1149   -0.7124 O.2       1 <0>        -0.1550
     25 O4         11.4498    6.9989   -0.5931 O.3       1 <0>        -0.1581
     26 H1         -0.8213    1.5267   -1.0508 H         1 <0>         0.1495
     27 H2          1.2691    2.8129   -1.1752 H         1 <0>         0.1534
     28 H3         -0.8390   -0.7169   -0.0443 H         1 <0>         0.1524
     29 H4          5.6494   -0.3748    1.2375 H         1 <0>         0.1908
     30 H5          5.4979    3.8257   -0.3589 H         1 <0>         0.4314
     31 H6          8.6231    2.0846   -0.3917 H         1 <0>         0.1844
     32 H7         10.8254    3.1641   -0.5919 H         1 <0>         0.1636
     33 H8          8.9792    7.0015   -0.3486 H         1 <0>         0.1674
     34 H9          3.5715   -1.4234    1.2522 H         1 <0>         0.4324
@<TRIPOS>BOND
     1    1    6 ar
     2    1    2 ar
     3    1   26 1
     4    2    3 ar
     5    2   27 1
     6    3   11 1
     7    3    4 ar
     8    4    5 ar
     9    4    8 1
    10    5    6 ar
    11    5    7 1
    12    6   28 1
    13    8    9 1
    14    8   34 1
    15    9   10 2
    16    9   29 1
    17   10   11 1
    18   10   13 1
    19   11   12 2
    20   13   14 2
    21   13   15 am
    22   15   16 1
    23   15   30 1
    24   16   21 ar
    25   16   17 ar
    26   17   18 ar
    27   17   31 1
    28   18   19 ar
    29   18   32 1
    30   19   20 ar
    31   19   23 1
    32   20   21 ar
    33   20   33 1
    34   21   22 1
    35   23   24 2
    36   23   25 1
@<TRIPOS>MOLECULE
ZINC23505245
   43    46     0     0     0
SMALL
USER_CHARGES

@<TRIPOS>ATOM
      1 C1         -0.0173    1.4248    0.0099 C.3       1 <0>         0.0312
      2 O1          0.0021   -0.0041    0.0020 O.3       1 <0>        -0.3814
      3 C2          0.6518   -0.5703   -1.1379 C.3       1 <0>         0.1393
      4 C3          0.6137   -2.0738   -1.0425 C.2       1 <0>         0.1390
      5 C4          1.5845   -2.8822   -0.4240 C.2       1 <0>        -0.1997
      6 C5          1.1708   -4.1968   -0.5573 C.2       1 <0>         0.3225
      7 N1          1.7220   -5.3919   -0.1479 N.pl3     1 <0>        -0.5973
      8 H1          2.5637   -5.3968    0.3341 H         1 <0>         0.4330
      9 C6          1.0868   -6.5667   -0.4184 C.2       1 <0>         0.2217
     10 C7         -0.0874   -6.5596   -1.0902 C.2       1 <0>        -0.2829
     11 C8         -0.6488   -5.3360   -1.5077 C.2       1 <0>         0.5670
     12 O2         -1.7061   -5.3240   -2.1127 O.2       1 <0>        -0.4778
     13 N2         -0.0128   -4.1791   -1.2353 N.am      1 <0>        -0.3540
     14 N3         -0.3299   -2.8447   -1.5157 N.2       1 <0>        -0.2350
     15 C9          1.6917   -7.8721    0.0299 C.3       1 <0>        -0.0711
     16 H2          1.0564   -8.7115   -0.2526 H         1 <0>         0.1385
     17 C10         1.9550   -7.8657    1.5536 C.3       1 <0>        -0.1553
     18 C11         3.2543   -8.6248    1.7087 C.2       1 <0>         0.5210
     19 O3          3.6690   -9.0863    2.7508 O.2       1 <0>        -0.5162
     20 N4          3.8822   -8.7137    0.5235 N.am      1 <0>        -0.7309
     21 C12         3.1186   -8.0436   -0.5365 C.3       1 <0>         0.1054
     22 C13         2.8215   -2.4134    0.2464 C.ar      1 <0>        -0.0103
     23 C14         4.0697   -2.7437   -0.2788 C.ar      1 <0>        -0.1005
     24 C15         5.2177   -2.3051    0.3488 C.ar      1 <0>        -0.1088
     25 C16         5.1313   -1.5387    1.4984 C.ar      1 <0>        -0.0313
     26 C17         3.8940   -1.2079    2.0241 C.ar      1 <0>        -0.1070
     27 C18         2.7399   -1.6363    1.4007 C.ar      1 <0>        -0.0807
     28 Cl1         6.5793   -0.9910    2.2839 Cl        1 <0>        -0.0660
     29 H3          1.0053    1.8021    0.0021 H         1 <0>         0.0461
     30 H4         -0.5445    1.7859   -0.8732 H         1 <0>         0.0464
     31 H5         -0.5275    1.7763    0.9067 H         1 <0>         0.0916
     32 H6          0.1385   -0.2506   -2.0447 H         1 <0>         0.0759
     33 H7          1.6883   -0.2344   -1.1694 H         1 <0>         0.0794
     34 H8         -0.5931   -7.4891   -1.3064 H         1 <0>         0.1826
     35 H9          2.0642   -6.8441    1.9176 H         1 <0>         0.1070
     36 H10         1.1497   -8.3759    2.0820 H         1 <0>         0.1217
     37 H11         4.7305   -9.1634    0.3859 H         1 <0>         0.4185
     38 H12         3.0964   -8.6612   -1.4343 H         1 <0>         0.1003
     39 H13         3.5559   -7.0701   -0.7583 H         1 <0>         0.0750
     40 H14         4.1383   -3.3422   -1.1752 H         1 <0>         0.1305
     41 H15         6.1853   -2.5605   -0.0573 H         1 <0>         0.1360
     42 H16         3.8320   -0.6098    2.9212 H         1 <0>         0.1372
     43 H17         1.7751   -1.3740    1.8091 H         1 <0>         0.1395
@<TRIPOS>BOND
     1    1    2 1
     2    1   29 1
     3    1   30 1
     4    1   31 1
     5    2    3 1
     6    3    4 1
     7    3   32 1
     8    3   33 1
     9    4   14 2
    10    4    5 1
    11    5    6 2
    12    5   22 1
    13    6   13 1
    14    6    7 1
    15    7    8 1
    16    7    9 1
    17    9   10 2
    18    9   15 1
    19   10   11 1
    20   10   34 1
    21   11   12 2
    22   11   13 am
    23   13   14 1
    24   15   16 1
    25   15   21 1
    26   15   17 1
    27   17   18 1
    28   17   35 1
    29   17   36 1
    30   18   19 2
    31   18   20 am
    32   20   21 1
    33   20   37 1
    34   21   38 1
    35   21   39 1
    36   22   27 ar
    37   22   23 ar
    38   23   24 ar
    39   23   40 1
    40   24   25 ar
    41   24   41 1
    42   25   26 ar
    43   25   28 1
    44   26   27 ar
    45   26   42 1
    46   27   43 1
@<TRIPOS>MOLECULE
ZINC06733523
   46    49     0     0     0
SMALL
USER_CHARGES

@<TRIPOS>ATOM
      1 C1         -0.0187    1.5258    0.0104 C.3       1 <0>        -0.1513
      2 C2          0.0021   -0.0041    0.0020 C.3       1 <0>        -0.0463
      3 C3          0.7182   -0.4975   -1.2568 C.3       1 <0>        -0.1463
      4 C4          0.7309   -0.5033    1.2229 C.2       1 <0>         0.1595
      5 C5          0.2229   -1.2941    2.1796 C.2       1 <0>        -0.2588
      6 C6          1.2340   -1.5242    3.1410 C.2       1 <0>         0.2799
      7 N1          2.3032   -0.8886    2.7596 N.2       1 <0>        -0.2494
      8 N2          2.0175   -0.2391    1.5483 N.pl3     1 <0>        -0.4537
      9 H1          2.6344    0.3057    1.0350 H         1 <0>         0.4516
     10 O1          1.0183   -2.2944    4.2407 O.3       1 <0>        -0.2074
     11 C7         -0.2544   -2.6245    4.5368 C.2       1 <0>         0.4594
     12 C8         -1.3008   -2.4633    3.6963 C.2       1 <0>        -0.2586
     13 C9         -1.1507   -1.8892    2.3151 C.3       1 <0>         0.1275
     14 C10        -1.4004   -2.9241    1.2656 C.ar      1 <0>        -0.1301
     15 C11        -0.7679   -4.1166    0.9872 C.ar      1 <0>        -0.0439
     16 C12        -1.2599   -4.8574   -0.0820 C.ar      1 <0>        -0.1451
     17 C13        -2.3335   -4.4161   -0.8285 C.ar      1 <0>        -0.0813
     18 C14        -2.9752   -3.2185   -0.5543 C.ar      1 <0>        -0.1393
     19 C15        -2.4912   -2.4651    0.5163 C.ar      1 <0>         0.1500
     20 N3         -2.9351   -1.2500    1.0075 N.am      1 <0>        -0.5497
     21 C16        -2.2067   -0.8352    2.0656 C.2       1 <0>         0.5387
     22 O2         -2.3685    0.1878    2.6967 O.2       1 <0>        -0.4738
     23 C17        -4.0622   -0.5018    0.4453 C.3       1 <0>         0.1379
     24 C18        -5.3368   -0.9241    1.1294 C.2       1 <0>        -0.1870
     25 C19        -6.1046   -0.0265    1.6958 C.2       1 <0>        -0.1571
     26 C20        -2.6048   -2.8550    4.1397 C.1       1 <0>         0.2668
     27 N4         -3.6394   -3.1657    4.4914 N.1       1 <0>        -0.4292
     28 N5         -0.5049   -3.1611    5.7751 N.pl3     1 <0>        -0.8238
     29 H2          1.0039    1.9031    0.0027 H         1 <0>         0.0590
     30 H3         -0.5459    1.8868   -0.8726 H         1 <0>         0.0720
     31 H4         -0.5289    1.8773    0.9072 H         1 <0>         0.0653
     32 H5         -1.0205   -0.3814    0.0098 H         1 <0>         0.0983
     33 H6          1.7408   -0.1202   -1.2645 H         1 <0>         0.0579
     34 H7          0.7330   -1.5874   -1.2628 H         1 <0>         0.0656
     35 H8          0.1910   -0.1364   -2.1398 H         1 <0>         0.0716
     36 H9          0.0717   -4.4604    1.5731 H         1 <0>         0.1325
     37 H10        -0.7923   -5.7980   -0.3332 H         1 <0>         0.1261
     38 H11        -2.6839   -5.0218   -1.6511 H         1 <0>         0.1270
     39 H12        -3.8145   -2.8821   -1.1448 H         1 <0>         0.1336
     40 H13        -3.9032    0.5654    0.6000 H         1 <0>         0.0949
     41 H14        -4.1378   -0.7068   -0.6226 H         1 <0>         0.0968
     42 H15        -5.6171   -1.9669    1.1528 H         1 <0>         0.1130
     43 H16        -5.8242    1.0162    1.6724 H         1 <0>         0.1008
     44 H17        -7.0181   -0.3292    2.1861 H         1 <0>         0.1031
     45 H18         0.2225   -3.2912    6.4035 H         1 <0>         0.4150
     46 H19        -1.4093   -3.4102    6.0218 H         1 <0>         0.4283
@<TRIPOS>BOND
     1    1    2 1
     2    1   29 1
     3    1   30 1
     4    1   31 1
     5    2    3 1
     6    2    4 1
     7    2   32 1
     8    3   33 1
     9    3   34 1
    10    3   35 1
    11    4    8 1
    12    4    5 2
    13    5   13 1
    14    5    6 1
    15    6    7 2
    16    6   10 1
    17    7    8 1
    18    8    9 1
    19   10   11 1
    20   11   12 2
    21   11   28 1
    22   12   13 1
    23   12   26 1
    24   13   21 1
    25   13   14 1
    26   14   19 ar
    27   14   15 ar
    28   15   16 ar
    29   15   36 1
    30   16   17 ar
    31   16   37 1
    32   17   18 ar
    33   17   38 1
    34   18   19 ar
    35   18   39 1
    36   19   20 1
    37   20   21 am
    38   20   23 1
    39   21   22 2
    40   23   24 1
    41   23   40 1
    42   23   41 1
    43   24   25 2
    44   24   42 1
    45   25   43 1
    46   25   44 1
    47   26   27 3
    48   28   45 1
    49   28   46 1
@<TRIPOS>MOLECULE
ZINC04110814
   40    41     0     0     0
SMALL
USER_CHARGES
1,3-bis(3-methyl-1,1-dioxo-thiolan-3-yl)urea
@<TRIPOS>ATOM
      1 C1         -0.0127    1.0858    0.0080 C.3       1 <0>        -0.1698
      2 C2         -0.7288    1.5792    1.2668 C.3       1 <0>         0.2017
      3 C3         -0.8269    3.1030    1.2089 C.3       1 <0>        -0.1472
      4 C4         -0.8644    3.6956    2.6452 C.3       1 <0>        -0.5633
      5 S1          0.3679    2.5918    3.4658 S.o2      1 <0>         2.3650
      6 O1         -0.0155    2.3876    4.8188 O.2       1 <0>        -0.9346
      7 O2          1.6789    3.0518    3.1676 O.2       1 <0>        -0.9247
      8 C5          0.0305    1.0591    2.5030 C.3       1 <0>        -0.5884
      9 N1         -2.0849    1.0251    1.2814 N.am      1 <0>        -0.7407
     10 C6         -2.9333    1.2930    0.2690 C.2       1 <0>         0.7095
     11 O3         -2.5732    1.9946   -0.6564 O.2       1 <0>        -0.5733
     12 N2         -4.1808    0.7832    0.2824 N.am      1 <0>        -0.7405
     13 C7         -5.1030    1.0744   -0.8181 C.3       1 <0>         0.2023
     14 C8         -4.4789    0.5823   -2.1231 C.3       1 <0>        -0.1481
     15 C9         -4.8924   -0.8856   -2.4029 C.3       1 <0>        -0.5627
     16 S2         -6.6551   -0.8168   -1.8563 S.o2      1 <0>         2.3647
     17 O4         -7.0187   -2.0695   -1.2925 O.2       1 <0>        -0.9346
     18 O5         -7.4454   -0.2572   -2.8963 O.2       1 <0>        -0.9246
     19 C10        -6.4642    0.4218   -0.5075 C.3       1 <0>        -0.5885
     20 C11        -5.2947    2.5897   -0.9070 C.3       1 <0>        -0.1704
     21 H1          0.0021   -0.0041    0.0020 H         1 <0>         0.0643
     22 H2          1.0099    1.4631    0.0003 H         1 <0>         0.0729
     23 H3         -0.5399    1.4469   -0.8751 H         1 <0>         0.0924
     24 H4          0.0380    3.5001    0.6774 H         1 <0>         0.1009
     25 H5         -1.7359    3.3860    0.6781 H         1 <0>         0.1230
     26 H6         -1.8526    3.5900    3.0930 H         1 <0>         0.1360
     27 H7         -0.5355    4.7348    2.6550 H         1 <0>         0.1441
     28 H8         -0.5928    0.3735    3.0770 H         1 <0>         0.1466
     29 H9          0.9612    0.5748    2.2071 H         1 <0>         0.1541
     30 H10        -2.3722    0.4653    2.0196 H         1 <0>         0.3994
     31 H11        -4.4681    0.2234    1.0207 H         1 <0>         0.3995
     32 H12        -4.8165    1.2138   -2.9449 H         1 <0>         0.1010
     33 H13        -3.3931    0.6403   -2.0479 H         1 <0>         0.1227
     34 H14        -4.3152   -1.5833   -1.7963 H         1 <0>         0.1360
     35 H15        -4.8143   -1.1261   -3.4632 H         1 <0>         0.1443
     36 H16        -6.4425   -0.0692    0.4654 H         1 <0>         0.1466
     37 H17        -7.2634    1.1621   -0.5456 H         1 <0>         0.1541
     38 H18        -4.3309    3.0683   -1.0807 H         1 <0>         0.0929
     39 H19        -5.9697    2.8228   -1.7305 H         1 <0>         0.0731
     40 H20        -5.7200    2.9576    0.0267 H         1 <0>         0.0642
@<TRIPOS>BOND
     1    1    2 1
     2    1   21 1
     3    1   22 1
     4    1   23 1
     5    2    8 1
     6    2    3 1
     7    2    9 1
     8    3    4 1
     9    3   24 1
    10    3   25 1
    11    4    5 1
    12    4   26 1
    13    4   27 1
    14    5    6 2
    15    5    7 2
    16    5    8 1
    17    8   28 1
    18    8   29 1
    19    9   10 am
    20    9   30 1
    21   10   11 2
    22   10   12 am
    23   12   13 1
    24   12   31 1
    25   13   19 1
    26   13   14 1
    27   13   20 1
    28   14   15 1
    29   14   32 1
    30   14   33 1
    31   15   16 1
    32   15   34 1
    33   15   35 1
    34   16   17 2
    35   16   18 2
    36   16   19 1
    37   19   36 1
    38   19   37 1
    39   20   38 1
    40   20   39 1
    41   20   40 1
@<TRIPOS>MOLECULE
ZINC37920802
   32    33     0     0     0
SMALL
USER_CHARGES

@<TRIPOS>ATOM
      1 C1         -0.0184    1.5028    0.0103 C.3       1 <0>        -0.0786
      2 C2          0.0021   -0.0041    0.0020 C.2       1 <0>         0.1106
      3 C3          0.0081   -0.8287   -1.1475 C.2       1 <0>        -0.2110
      4 C4          0.0279   -2.1416   -0.7062 C.2       1 <0>         0.1411
      5 N1          0.0336   -2.1118    0.6382 N.pl3     1 <0>        -0.3541
      6 N2          0.0230   -0.7756    1.0532 N.2       1 <0>        -0.2738
      7 C5          0.0535   -3.2815    1.5199 C.3       1 <0>         0.0910
      8 Cl1         0.0418   -3.5623   -1.7038 Cl        1 <0>         0.0113
      9 C6         -0.0048   -0.3779   -2.5450 C.2       1 <0>         0.0407
     10 C7          0.8945   -0.8739   -3.4233 C.2       1 <0>        -0.2216
     11 C8          0.8821   -0.4388   -4.7721 C.2       1 <0>         0.5594
     12 O1          0.0612    0.3818   -5.1395 O.2       1 <0>        -0.5437
     13 N3          1.7790   -0.9335   -5.6480 N.am      1 <0>        -0.7228
     14 C9          1.7662   -0.4838   -7.0422 C.3       1 <0>         0.2179
     15 C10         2.8608   -1.1836   -7.8059 C.2       1 <0>         0.2086
     16 N4          2.7360   -2.3432   -8.4500 N.2       1 <0>        -0.5322
     17 H1          5.6956   -1.6684   -9.0004 H         1 <0>         0.4454
     18 C11         3.8752   -2.6669   -9.0061 C.2       1 <0>         0.2658
     19 N5          4.7669   -1.7017   -8.7225 N.pl3     1 <0>        -0.4798
     20 N6          4.0851   -0.7485   -7.9485 N.2       1 <0>        -0.2942
     21 H2          1.0042    1.8801    0.0026 H         1 <0>         0.0851
     22 H3         -0.5455    1.8639   -0.8728 H         1 <0>         0.0859
     23 H4         -0.5286    1.8543    0.9071 H         1 <0>         0.0808
     24 H5          1.0860   -3.5577    1.7340 H         1 <0>         0.0846
     25 H6         -0.4595   -3.0429    2.4517 H         1 <0>         0.1003
     26 H7         -0.4513   -4.1143    1.0303 H         1 <0>         0.0926
     27 H8         -0.7330    0.3500   -2.8709 H         1 <0>         0.1435
     28 H9          1.6227   -1.6019   -3.0974 H         1 <0>         0.1232
     29 H10         2.4331   -1.5873   -5.3553 H         1 <0>         0.4028
     30 H11         0.8016   -0.7201   -7.4914 H         1 <0>         0.0996
     31 H12         1.9296    0.5933   -7.0781 H         1 <0>         0.0948
     32 H13         4.0660   -3.5548   -9.5906 H         1 <0>         0.2270
@<TRIPOS>BOND
     1    1    2 1
     2    1   21 1
     3    1   22 1
     4    1   23 1
     5    2    6 2
     6    2    3 1
     7    3    4 2
     8    3    9 1
     9    4    5 1
    10    4    8 1
    11    5    6 1
    12    5    7 1
    13    7   24 1
    14    7   25 1
    15    7   26 1
    16    9   10 2
    17    9   27 1
    18   10   11 1
    19   10   28 1
    20   11   12 2
    21   11   13 am
    22   13   14 1
    23   13   29 1
    24   14   30 1
    25   14   31 1
    26   14   15 1
    27   15   16 1
    28   15   20 2
    29   16   18 2
    30   17   19 1
    31   18   32 1
    32   18   19 1
    33   19   20 1
@<TRIPOS>MOLECULE
ZINC48030562
   31    33     0     0     0
SMALL
USER_CHARGES

@<TRIPOS>ATOM
      1 C1         -0.0623    1.4612    0.0117 C.3       1 <0>         0.0900
      2 N1         -0.0163   -0.0031    0.0029 N.am      1 <0>        -0.5863
      3 C2          0.1226   -0.7391    1.2620 C.3       1 <0>         0.1655
      4 C3         -1.2440   -1.0367    1.8232 C.2       1 <0>         0.3785
      5 N2         -1.3263   -1.7131    2.9990 N.am      1 <0>        -0.6347
      6 H1         -0.5204   -1.9939    3.4599 H         1 <0>         0.4253
      7 C4         -2.5452   -1.9911    3.5212 C.2       1 <0>         0.5847
      8 O1         -2.6527   -2.5961    4.5747 O.2       1 <0>        -0.5223
      9 C5         -3.6737   -1.5654    2.8201 C.2       1 <0>        -0.3234
     10 C6         -3.5608   -0.8670    1.6052 C.2       1 <0>         0.1676
     11 N3         -2.2817   -0.6310    1.1643 N.2       1 <0>        -0.4899
     12 C7         -4.7730   -0.4985    1.0062 C.2       1 <0>        -0.1561
     13 C8         -5.9461   -0.8155    1.5954 C.2       1 <0>        -0.1280
     14 S1         -5.4256   -1.6764    3.0703 S.3       1 <0>         0.1700
     15 C9         -0.1016   -0.6730   -1.1634 C.2       1 <0>         0.6146
     16 O2         -0.1601   -1.8873   -1.1640 O.2       1 <0>        -0.5260
     17 C10        -0.1240    0.0681   -2.4409 C.2       1 <0>        -0.0098
     18 C11        -0.3319   -0.4799   -3.7288 C.2       1 <0>        -0.1784
     19 C12        -0.2678    0.5684   -4.5828 C.2       1 <0>        -0.0112
     20 N4         -0.0352    1.6736   -3.8426 N.pl3     1 <0>        -0.3839
     21 H2          0.0570    2.5709   -4.1993 H         1 <0>         0.4474
     22 N5          0.0402    1.3665   -2.5974 N.2       1 <0>        -0.2540
     23 H3          0.9363    1.8572   -0.1726 H         1 <0>         0.0616
     24 H4         -0.7403    1.8080   -0.7682 H         1 <0>         0.0881
     25 H5         -0.4173    1.8078    0.9822 H         1 <0>         0.0663
     26 H6          0.6521   -1.6742    1.0797 H         1 <0>         0.1227
     27 H7          0.6848   -0.1362    1.9751 H         1 <0>         0.1200
     28 H8         -4.7690    0.0409    0.0705 H         1 <0>         0.1484
     29 H9         -6.9496   -0.6016    1.2582 H         1 <0>         0.2041
     30 H10        -0.5052   -1.5164   -3.9780 H         1 <0>         0.1630
     31 H11        -0.3811    0.5282   -5.6561 H         1 <0>         0.1863
@<TRIPOS>BOND
     1    1    2 1
     2    1   23 1
     3    1   24 1
     4    1   25 1
     5    2    3 1
     6    2   15 am
     7    3    4 1
     8    3   26 1
     9    3   27 1
    10    4   11 2
    11    4    5 1
    12    5    6 1
    13    5    7 am
    14    7    8 2
    15    7    9 1
    16    9   14 1
    17    9   10 2
    18   10   11 1
    19   10   12 1
    20   12   13 2
    21   12   28 1
    22   13   14 1
    23   13   29 1
    24   15   16 2
    25   15   17 1
    26   17   22 2
    27   17   18 1
    28   18   19 2
    29   18   30 1
    30   19   20 1
    31   19   31 1
    32   20   21 1
    33   20   22 1
@<TRIPOS>MOLECULE
ZINC57336976
   39    41     0     0     0
SMALL
USER_CHARGES

@<TRIPOS>ATOM
      1 C1         -0.0187    1.5258    0.0104 C.3       1 <0>        -0.1467
      2 C2          0.0021   -0.0041    0.0020 C.3       1 <0>         0.1809
      3 C3          0.8145   -0.5200   -1.1691 C.2       1 <0>         0.5387
      4 O1          0.5947   -0.3417   -2.3479 O.2       1 <0>        -0.4446
      5 N1          1.8325   -1.2174   -0.6272 N.am      1 <0>        -0.3740
      6 C4          1.7766   -1.2139    0.7095 C.2       1 <0>         0.7095
      7 O2          2.5860   -1.7761    1.4210 O.2       1 <0>        -0.5187
      8 N2          0.7243   -0.5191    1.1781 N.am      1 <0>        -0.7090
      9 N3          2.8259   -1.8666   -1.3718 N.am      1 <0>        -0.5036
     10 C5          4.0628   -1.3373   -1.4509 C.2       1 <0>         0.5193
     11 O3          4.3159   -0.2989   -0.8776 O.2       1 <0>        -0.4879
     12 C6          5.1315   -2.0356   -2.2518 C.3       1 <0>         0.0804
     13 H1          5.2548   -3.0612   -1.9038 H         1 <0>         0.1106
     14 C7          4.7716   -2.0186   -3.7588 C.3       1 <0>        -0.1498
     15 C8          6.1797   -2.1547   -4.3997 C.3       1 <0>        -0.1530
     16 C9          7.0684   -1.3755   -3.4065 C.3       1 <0>         0.0464
     17 O4          6.3746   -1.3227   -2.1529 O.3       1 <0>        -0.3507
     18 C10        -1.4013   -0.5515   -0.0400 C.ar      1 <0>        -0.1016
     19 C11        -2.0046   -0.8146   -1.2556 C.ar      1 <0>        -0.1090
     20 C12        -3.2919   -1.3168   -1.2941 C.ar      1 <0>        -0.1132
     21 C13        -3.9758   -1.5564   -0.1170 C.ar      1 <0>        -0.1071
     22 C14        -3.3723   -1.2942    1.0987 C.ar      1 <0>        -0.1162
     23 C15        -2.0834   -0.7960    1.1373 C.ar      1 <0>        -0.0946
     24 H2          1.0039    1.9031    0.0027 H         1 <0>         0.0764
     25 H3         -0.5459    1.8868   -0.8726 H         1 <0>         0.0898
     26 H4         -0.5289    1.8773    0.9072 H         1 <0>         0.0885
     27 H5          0.4875   -0.3833    2.1089 H         1 <0>         0.4450
     28 H6          2.6235   -2.6971   -1.8303 H         1 <0>         0.4278
     29 H7          4.1373   -2.8655   -4.0208 H         1 <0>         0.0979
     30 H8          4.3014   -1.0763   -4.0398 H         1 <0>         0.0884
     31 H9          6.4823   -3.2005   -4.4530 H         1 <0>         0.0852
     32 H10         6.2031   -1.6922   -5.3865 H         1 <0>         0.0910
     33 H11         8.0204   -1.8909   -3.2792 H         1 <0>         0.0791
     34 H12         7.2402   -0.3653   -3.7780 H         1 <0>         0.0764
     35 H13        -1.4702   -0.6274   -2.1753 H         1 <0>         0.1392
     36 H14        -3.7634   -1.5216   -2.2439 H         1 <0>         0.1290
     37 H15        -4.9818   -1.9481   -0.1471 H         1 <0>         0.1274
     38 H16        -3.9067   -1.4811    2.0184 H         1 <0>         0.1292
     39 H17        -1.6104   -0.5947    2.0872 H         1 <0>         0.1240
@<TRIPOS>BOND
     1    1    2 1
     2    1   24 1
     3    1   25 1
     4    1   26 1
     5    2    8 1
     6    2    3 1
     7    2   18 1
     8    3    4 2
     9    3    5 am
    10    5    6 am
    11    5    9 1
    12    6    7 2
    13    6    8 am
    14    8   27 1
    15    9   10 am
    16    9   28 1
    17   10   11 2
    18   10   12 1
    19   12   13 1
    20   12   17 1
    21   12   14 1
    22   14   15 1
    23   14   29 1
    24   14   30 1
    25   15   16 1
    26   15   31 1
    27   15   32 1
    28   16   17 1
    29   16   33 1
    30   16   34 1
    31   18   23 ar
    32   18   19 ar
    33   19   20 ar
    34   19   35 1
    35   20   21 ar
    36   20   36 1
    37   21   22 ar
    38   21   37 1
    39   22   23 ar
    40   22   38 1
    41   23   39 1
@<TRIPOS>MOLECULE
ZINC08594208
   37    39     0     0     0
SMALL
USER_CHARGES

@<TRIPOS>ATOM
      1 C1         -0.0178    1.4608    0.0101 C.3       1 <0>         0.0852
      2 N1          0.0021   -0.0041    0.0020 N.am      1 <0>        -0.5220
      3 C2         -1.1840   -0.7075    0.0039 C.2       1 <0>         0.4468
      4 C3         -1.1426   -2.0872    0.0223 C.2       1 <0>        -0.3397
      5 C4          0.0997   -2.7371    0.0140 C.2       1 <0>         0.5657
      6 O1          0.1571   -3.9548    0.0238 O.2       1 <0>        -0.5142
      7 N2          1.2304   -2.0026   -0.0055 N.am      1 <0>        -0.5575
      8 C5          1.1778   -0.6589   -0.0127 C.2       1 <0>         0.7019
      9 O2          2.2137   -0.0224   -0.0281 O.2       1 <0>        -0.5342
     10 C6          2.5312   -2.6764   -0.0250 C.3       1 <0>         0.0801
     11 C7         -2.4239   -2.8775    0.0657 C.3       1 <0>         0.0410
     12 H1         -2.2687   -3.8503   -0.4010 H         1 <0>         0.1235
     13 C8         -3.5073   -2.1097   -0.6973 C.3       1 <0>        -0.1139
     14 C9         -3.4799   -0.6609   -0.2874 C.2       1 <0>         0.4549
     15 N3         -2.3649   -0.0618    0.0061 N.2       1 <0>        -0.6155
     16 O3         -4.6333    0.0272   -0.2243 O.3       1 <0>        -0.4356
     17 C10        -2.8512   -3.0677    1.4983 C.ar      1 <0>        -0.0670
     18 C11        -3.1174   -1.9669    2.2918 C.ar      1 <0>        -0.1336
     19 C12        -3.5095   -2.1380    3.6063 C.ar      1 <0>        -0.0986
     20 C13        -3.6361   -3.4100    4.1307 C.ar      1 <0>        -0.1441
     21 C14        -3.3697   -4.5158    3.3369 C.ar      1 <0>         0.1096
     22 C15        -2.9822   -4.3415    2.0160 C.ar      1 <0>        -0.1256
     23 O4         -3.4936   -5.7680    3.8503 O.3       1 <0>        -0.4975
     24 H2          1.0048    1.8381    0.0023 H         1 <0>         0.1019
     25 H3         -0.5450    1.8219   -0.8730 H         1 <0>         0.0795
     26 H4         -0.5280    1.8123    0.9069 H         1 <0>         0.0824
     27 H5          2.8373   -2.8454   -1.0574 H         1 <0>         0.0744
     28 H6          3.2712   -2.0522    0.4759 H         1 <0>         0.0917
     29 H7          2.4528   -3.6328    0.4920 H         1 <0>         0.0949
     30 H8         -3.3215   -2.1877   -1.7685 H         1 <0>         0.1237
     31 H9         -4.4843   -2.5342   -0.4663 H         1 <0>         0.1219
     32 H10        -4.5269    0.9493    0.0466 H         1 <0>         0.4184
     33 H11        -3.0183   -0.9717    1.8839 H         1 <0>         0.1192
     34 H12        -3.7168   -1.2766    4.2240 H         1 <0>         0.1267
     35 H13        -3.9418   -3.5431    5.1580 H         1 <0>         0.1296
     36 H14        -2.7788   -5.2011    1.3945 H         1 <0>         0.1340
     37 H15        -4.3750   -6.1512    3.7442 H         1 <0>         0.3918
@<TRIPOS>BOND
     1    1    2 1
     2    1   24 1
     3    1   25 1
     4    1   26 1
     5    2    8 am
     6    2    3 1
     7    3   15 1
     8    3    4 2
     9    4    5 1
    10    4   11 1
    11    5    6 2
    12    5    7 am
    13    7    8 am
    14    7   10 1
    15    8    9 2
    16   10   27 1
    17   10   28 1
    18   10   29 1
    19   11   12 1
    20   11   13 1
    21   11   17 1
    22   13   14 1
    23   13   30 1
    24   13   31 1
    25   14   15 2
    26   14   16 1
    27   16   32 1
    28   17   22 ar
    29   17   18 ar
    30   18   19 ar
    31   18   33 1
    32   19   20 ar
    33   19   34 1
    34   20   21 ar
    35   20   35 1
    36   21   22 ar
    37   21   23 1
    38   22   36 1
    39   23   37 1
@<TRIPOS>MOLECULE
ZINC02350992
   41    44     0     0     0
SMALL
USER_CHARGES
3-amino-5-(2-furyl)-8-(2-furylmethyl)-9-methyl-7-oxo-2-oxa-8-azabicyclo[4.4.0]deca-3,9,11-triene-4-carbonitrile
@<TRIPOS>ATOM
      1 C1         -3.9779    3.5211    1.2630 C.3       1 <0>        -0.1343
      2 C2         -3.0052    4.3804    2.0287 C.2       1 <0>         0.2032
      3 C3         -3.3674    4.8927    3.2243 C.2       1 <0>        -0.2318
      4 C4         -2.4630    5.7025    3.9423 C.2       1 <0>         0.2281
      5 C5         -1.2170    5.9494    3.4059 C.2       1 <0>        -0.2774
      6 C6         -0.8833    5.3921    2.1648 C.2       1 <0>         0.5439
      7 O1          0.2164    5.6026    1.6775 O.2       1 <0>        -0.5106
      8 N1         -1.7738    4.6251    1.5087 N.am      1 <0>        -0.4986
      9 C7         -1.4120    4.0501    0.2107 C.3       1 <0>         0.1768
     10 C8         -1.7404    5.0330   -0.8833 C.2       1 <0>        -0.0595
     11 C9         -0.9111    5.9729   -1.3715 C.2       1 <0>        -0.1583
     12 C10        -1.6245    6.6673   -2.3753 C.2       1 <0>        -0.2172
     13 C11        -2.8440    6.1041   -2.4471 C.2       1 <0>        -0.0258
     14 O2         -2.9085    5.1147   -1.5411 O.3       1 <0>        -0.1755
     15 C12        -0.2209    6.8059    4.1382 C.3       1 <0>         0.1567
     16 H1          0.5365    6.1690    4.5951 H         1 <0>         0.1135
     17 C13        -0.9121    7.6015    5.2106 C.2       1 <0>        -0.2688
     18 C14        -2.1524    7.2706    5.6409 C.2       1 <0>         0.4360
     19 O3         -2.8243    6.2216    5.1350 O.3       1 <0>        -0.2352
     20 N2         -2.7411    8.0280    6.6226 N.pl3     1 <0>        -0.8273
     21 C15        -0.2462    8.7305    5.7873 C.1       1 <0>         0.2725
     22 N3          0.2820    9.6262    6.2447 N.1       1 <0>        -0.4349
     23 C16         0.4394    7.7478    3.1646 C.2       1 <0>         0.0116
     24 C17         1.7564    7.8066    2.8971 C.2       1 <0>        -0.1857
     25 C18         1.9332    8.8245    1.9319 C.2       1 <0>        -0.2080
     26 C19         0.7138    9.3267    1.6673 C.2       1 <0>        -0.0478
     27 O4         -0.1878    8.6668    2.4125 O.3       1 <0>        -0.1706
     28 H2         -3.7852    2.4708    1.4818 H         1 <0>         0.0982
     29 H3         -4.9963    3.7729    1.5590 H         1 <0>         0.0986
     30 H4         -3.8559    3.6979    0.1944 H         1 <0>         0.0890
     31 H5         -4.3477    4.6862    3.6278 H         1 <0>         0.1631
     32 H6         -1.9731    3.1291    0.0522 H         1 <0>         0.1127
     33 H7         -0.3441    3.8322    0.1948 H         1 <0>         0.1326
     34 H8          0.1040    6.1626   -1.0552 H         1 <0>         0.1538
     35 H9         -1.2590    7.4893   -2.9730 H         1 <0>         0.1506
     36 H10        -3.6369    6.3980   -3.1189 H         1 <0>         0.2059
     37 H11        -2.2689    8.7878    6.9977 H         1 <0>         0.4273
     38 H12        -3.6293    7.8036    6.9413 H         1 <0>         0.4128
     39 H13         2.5303    7.1943    3.3360 H         1 <0>         0.1417
     40 H14         2.8681    9.1387    1.4918 H         1 <0>         0.1432
     41 H15         0.4961   10.1228    0.9707 H         1 <0>         0.1955
@<TRIPOS>BOND
     1    1    2 1
     2    1   28 1
     3    1   29 1
     4    1   30 1
     5    2    8 1
     6    2    3 2
     7    3    4 1
     8    3   31 1
     9    4   19 1
    10    4    5 2
    11    5    6 1
    12    5   15 1
    13    6    7 2
    14    6    8 am
    15    8    9 1
    16    9   10 1
    17    9   32 1
    18    9   33 1
    19   10   14 1
    20   10   11 2
    21   11   12 1
    22   11   34 1
    23   12   13 2
    24   12   35 1
    25   13   14 1
    26   13   36 1
    27   15   16 1
    28   15   17 1
    29   15   23 1
    30   17   18 2
    31   17   21 1
    32   18   19 1
    33   18   20 1
    34   20   37 1
    35   20   38 1
    36   21   22 3
    37   23   27 1
    38   23   24 2
    39   24   25 1
    40   24   39 1
    41   25   26 2
    42   25   40 1
    43   26   27 1
    44   26   41 1
@<TRIPOS>MOLECULE
ZINC12181415
   49    51     0     0     0
SMALL
USER_CHARGES
4-amino-2-[(1R)-2-[(3R,5R)-3,5-dimethyl-1-piperidyl]-1-methyl-2-oxo-ethyl]-6-(2-furyl)pyridazin-3-one
@<TRIPOS>ATOM
      1 C1         10.7657   -3.4537    1.5940 C.3       1 <0>        -0.1474
      2 C2          9.3729   -3.1861    2.1680 C.3       1 <0>        -0.1106
      3 H1          9.3370   -2.1778    2.5806 H         1 <0>         0.0801
      4 C3          9.0721   -4.2013    3.2730 C.3       1 <0>        -0.1100
      5 C4          7.6926   -3.9141    3.8702 C.3       1 <0>        -0.1070
      6 H2          7.4889   -4.6228    4.6728 H         1 <0>         0.0839
      7 C5          6.6278   -4.0582    2.7783 C.3       1 <0>         0.1166
      8 N1          6.9887   -3.1911    1.6484 N.am      1 <0>        -0.6073
      9 C6          8.3252   -3.3259    1.0532 C.3       1 <0>         0.1058
     10 C7          6.1085   -2.2929    1.1637 C.2       1 <0>         0.5103
     11 O1          5.0403   -2.1322    1.7150 O.2       1 <0>        -0.5077
     12 C8          6.4516   -1.4883   -0.0635 C.3       1 <0>         0.1371
     13 H3          7.4863   -1.1515    0.0004 H         1 <0>         0.1363
     14 C9          6.2745   -2.3582   -1.3097 C.3       1 <0>        -0.1543
     15 N2          5.5641   -0.3259   -0.1492 N.am      1 <0>        -0.3822
     16 C10         6.0847    0.9175   -0.1404 C.2       1 <0>         0.5008
     17 O2          7.2921    1.0775   -0.0616 O.2       1 <0>        -0.5377
     18 C11         5.2197    2.0387   -0.2236 C.2       1 <0>         0.1747
     19 C12         3.8738    1.8358   -0.3168 C.2       1 <0>        -0.2196
     20 C13         3.3648    0.5188   -0.3183 C.2       1 <0>         0.2224
     21 N3          4.1802   -0.5118   -0.2404 N.2       1 <0>        -0.2168
     22 C14         1.9074    0.2956   -0.4142 C.2       1 <0>         0.0250
     23 C15         1.2847   -0.9130   -0.4317 C.2       1 <0>        -0.1416
     24 C16        -0.0971   -0.6562   -0.5316 C.2       1 <0>        -0.2178
     25 C17        -0.2481    0.6824   -0.5697 C.2       1 <0>        -0.0168
     26 O3          0.9648    1.2541   -0.4986 O.3       1 <0>        -0.1669
     27 N4          5.7393    3.3330   -0.2155 N.pl3     1 <0>        -0.8339
     28 C18         7.6637   -2.4892    4.4267 C.3       1 <0>        -0.1457
     29 H4         10.8008   -4.4616    1.1805 H         1 <0>         0.0582
     30 H5         10.9795   -2.7304    0.8071 H         1 <0>         0.0585
     31 H6         11.5091   -3.3597    2.3856 H         1 <0>         0.0604
     32 H7          9.8290   -4.1234    4.0535 H         1 <0>         0.0679
     33 H8          9.0842   -5.2076    2.8544 H         1 <0>         0.0663
     34 H9          5.6569   -3.7590    3.1730 H         1 <0>         0.0937
     35 H10         6.5826   -5.0946    2.4436 H         1 <0>         0.0698
     36 H11         8.4181   -4.3040    0.5813 H         1 <0>         0.0765
     37 H12         8.4745   -2.5433    0.3093 H         1 <0>         0.0841
     38 H13         5.2675   -2.7754   -1.3214 H         1 <0>         0.0795
     39 H14         6.4263   -1.7504   -2.2016 H         1 <0>         0.0751
     40 H15         7.0033   -3.1685   -1.2937 H         1 <0>         0.0816
     41 H16         3.2012    2.6780   -0.3854 H         1 <0>         0.1476
     42 H17         1.7578   -1.8825   -0.3792 H         1 <0>         0.1584
     43 H18        -0.8859   -1.3928   -0.5707 H         1 <0>         0.1549
     44 H19        -1.1882    1.2079   -0.6490 H         1 <0>         0.2103
     45 H20         6.6974    3.4705   -0.1527 H         1 <0>         0.4121
     46 H21         5.1425    4.0955   -0.2728 H         1 <0>         0.4110
     47 H22         6.6801   -2.2841    4.8494 H         1 <0>         0.0542
     48 H23         8.4214   -2.3871    5.2036 H         1 <0>         0.0551
     49 H24         7.8689   -1.7812    3.6237 H         1 <0>         0.0551
@<TRIPOS>BOND
     1    1    2 1
     2    1   29 1
     3    1   30 1
     4    1   31 1
     5    2    3 1
     6    2    9 1
     7    2    4 1
     8    4    5 1
     9    4   32 1
    10    4   33 1
    11    5    6 1
    12    5    7 1
    13    5   28 1
    14    7    8 1
    15    7   34 1
    16    7   35 1
    17    8    9 1
    18    8   10 am
    19    9   36 1
    20    9   37 1
    21   10   11 2
    22   10   12 1
    23   12   13 1
    24   12   14 1
    25   12   15 1
    26   14   38 1
    27   14   39 1
    28   14   40 1
    29   15   21 1
    30   15   16 am
    31   16   17 2
    32   16   18 1
    33   18   19 2
    34   18   27 1
    35   19   20 1
    36   19   41 1
    37   20   21 2
    38   20   22 1
    39   22   26 1
    40   22   23 2
    41   23   24 1
    42   23   42 1
    43   24   25 2
    44   24   43 1
    45   25   26 1
    46   25   44 1
    47   27   45 1
    48   27   46 1
    49   28   47 1
    50   28   48 1
    51   28   49 1
@<TRIPOS>MOLECULE
ZINC09012068
   45    47     0     0     0
SMALL
USER_CHARGES

@<TRIPOS>ATOM
      1 C1         -0.0187    1.5258    0.0104 C.3       1 <0>        -0.1215
      2 C2          0.0021   -0.0041    0.0020 C.3       1 <0>        -0.1191
      3 C3          0.7460   -0.6673   -1.1971 C.3       1 <0>        -0.1068
      4 C4          1.0648   -2.1006   -0.7128 C.3       1 <0>        -0.1148
      5 C5          0.4739   -2.1650    0.7293 C.3       1 <0>        -0.0862
      6 C6          0.7274   -0.6923    1.2115 C.3       1 <0>        -0.0223
      7 C7          0.0340   -0.3955    2.5427 C.3       1 <0>        -0.1492
      8 C8          2.2180   -0.3508    1.2584 C.3       1 <0>        -0.1412
      9 C9         -1.0704   -2.1242    0.5153 C.3       1 <0>        -0.1673
     10 C10        -1.3691   -0.6922    0.0580 C.2       1 <0>         0.3788
     11 O1         -2.4419   -0.2106   -0.2169 O.2       1 <0>        -0.4251
     12 C11         1.0068   -3.2614    1.6152 C.2       1 <0>         0.5528
     13 O2          1.5818   -2.9826    2.6460 O.2       1 <0>        -0.5139
     14 N1          0.8445   -4.5519    1.2620 N.am      1 <0>        -0.5244
     15 N2          1.3399   -5.5713    2.0856 N.pl3     1 <0>        -0.5225
     16 C12         1.1717   -6.9086    1.7196 C.ar      1 <0>         0.2664
     17 C13         0.5185   -7.2297    0.5364 C.ar      1 <0>        -0.2033
     18 C14         0.3543   -8.5530    0.1773 C.ar      1 <0>         0.0040
     19 C15         0.8393   -9.5581    0.9940 C.ar      1 <0>        -0.1088
     20 C16         1.4896   -9.2420    2.1727 C.ar      1 <0>         0.0037
     21 C17         1.6623   -7.9206    2.5350 C.ar      1 <0>        -0.1868
     22 N3          0.6615  -10.9754    0.6058 N.pl3     1 <0>         0.0429
     23 O3          0.0927  -11.2532   -0.4243 O.2       1 <0>        -0.1697
     24 O4          1.0849  -11.8551    1.3188 O.3       1 <0>        -0.1680
     25 H1          1.0039    1.9031    0.0027 H         1 <0>         0.0699
     26 H2         -0.5459    1.8868   -0.8726 H         1 <0>         0.0673
     27 H3         -0.5289    1.8773    0.9072 H         1 <0>         0.0647
     28 H4          0.1008   -0.6974   -2.0751 H         1 <0>         0.0760
     29 H5          1.6665   -0.1274   -1.4190 H         1 <0>         0.0891
     30 H6          0.5808   -2.8359   -1.3556 H         1 <0>         0.0788
     31 H7          2.1422   -2.2639   -0.6903 H         1 <0>         0.0830
     32 H8         -0.9992   -0.7398    2.4989 H         1 <0>         0.0521
     33 H9          0.5558   -0.9133    3.3475 H         1 <0>         0.0771
     34 H10         0.0516    0.6782    2.7300 H         1 <0>         0.0663
     35 H11         2.3406    0.7249    1.3839 H         1 <0>         0.0645
     36 H12         2.6835   -0.8698    2.0963 H         1 <0>         0.0721
     37 H13         2.6920   -0.6644    0.3282 H         1 <0>         0.0617
     38 H14        -1.3668   -2.8447   -0.2471 H         1 <0>         0.1067
     39 H15        -1.5886   -2.3277    1.4524 H         1 <0>         0.1048
     40 H16         0.3847   -4.7750    0.4376 H         1 <0>         0.4247
     41 H17         1.7998   -5.3482    2.9101 H         1 <0>         0.4419
     42 H18         0.1392   -6.4452   -0.1017 H         1 <0>         0.1378
     43 H19        -0.1538   -8.8033   -0.7423 H         1 <0>         0.1557
     44 H20         1.8666  -10.0293    2.8086 H         1 <0>         0.1577
     45 H21         2.1743   -7.6743    3.4535 H         1 <0>         0.1504
@<TRIPOS>BOND
     1    1    2 1
     2    1   25 1
     3    1   26 1
     4    1   27 1
     5    2    6 1
     6    2   10 1
     7    2    3 1
     8    3    4 1
     9    3   28 1
    10    3   29 1
    11    4    5 1
    12    4   30 1
    13    4   31 1
    14    5    6 1
    15    5    9 1
    16    5   12 1
    17    6    7 1
    18    6    8 1
    19    7   32 1
    20    7   33 1
    21    7   34 1
    22    8   35 1
    23    8   36 1
    24    8   37 1
    25    9   10 1
    26    9   38 1
    27    9   39 1
    28   10   11 2
    29   12   13 2
    30   12   14 am
    31   14   15 1
    32   14   40 1
    33   15   16 1
    34   15   41 1
    35   16   21 ar
    36   16   17 ar
    37   17   18 ar
    38   17   42 1
    39   18   19 ar
    40   18   43 1
    41   19   20 ar
    42   19   22 1
    43   20   21 ar
    44   20   44 1
    45   21   45 1
    46   22   23 2
    47   22   24 1
@<TRIPOS>MOLECULE
ZINC47295168
   46    49     0     0     0
SMALL
USER_CHARGES

@<TRIPOS>ATOM
      1 C1         -0.0187    1.5258    0.0104 C.3       1 <0>        -0.1087
      2 C2          1.3165    0.7789   -0.0063 C.3       1 <0>        -0.1467
      3 H1          1.8888    0.7918   -0.9339 H         1 <0>         0.1619
      4 C3          0.0021   -0.0041    0.0020 C.3       1 <0>        -0.0615
      5 H2         -0.2904   -0.5063   -0.9201 H         1 <0>         0.1834
      6 N1         -0.3674   -0.6924    1.2413 N.pl3     1 <0>         0.0187
      7 O1         -0.5180   -1.8920    1.2447 O.2       1 <0>        -0.1746
      8 O2         -0.5217   -0.0609    2.2607 O.3       1 <0>        -0.1117
      9 C4          2.1323    0.7834    1.2608 C.2       1 <0>         0.5298
     10 O3          1.7391    0.1812    2.2373 O.2       1 <0>        -0.5106
     11 N2          3.2988    1.4568    1.3088 N.am      1 <0>        -0.5123
     12 N3          4.0572    1.4610    2.4868 N.am      1 <0>        -0.5242
     13 C5          5.2238    2.1344    2.5348 C.2       1 <0>         0.5181
     14 O4          5.6169    2.7366    1.5583 O.2       1 <0>        -0.5237
     15 C6          6.0395    2.1389    3.8019 C.3       1 <0>        -0.1244
     16 C7          7.3064    2.9701    3.5898 C.3       1 <0>        -0.0331
     17 C8          8.1316    2.3615    2.4542 C.3       1 <0>        -0.1140
     18 C9          9.3985    3.1927    2.2421 C.3       1 <0>        -0.0834
     19 C10        10.2267    3.1973    3.5285 C.3       1 <0>        -0.1099
     20 C11         9.4016    3.8059    4.6641 C.3       1 <0>        -0.0841
     21 C12         8.1347    2.9747    4.8762 C.3       1 <0>        -0.1034
     22 C13         9.0151    5.2411    4.3012 C.3       1 <0>        -0.1099
     23 C14         8.1869    5.2365    3.0148 C.3       1 <0>        -0.0833
     24 C15         9.0120    4.6279    1.8792 C.3       1 <0>        -0.1059
     25 C16         6.9200    4.4053    3.2269 C.3       1 <0>        -0.1139
     26 H3         -0.3072    2.0201    0.9381 H         1 <0>         0.1357
     27 H4         -0.3248    2.0300   -0.9061 H         1 <0>         0.1440
     28 H5          3.6133    1.9385    0.5278 H         1 <0>         0.4343
     29 H6          3.7428    0.9793    3.2678 H         1 <0>         0.4338
     30 H7          5.4517    2.5725    4.6109 H         1 <0>         0.1019
     31 H8          6.3149    1.1164    4.0604 H         1 <0>         0.1013
     32 H9          8.4069    1.3390    2.7127 H         1 <0>         0.0535
     33 H10         7.5415    2.3582    1.5377 H         1 <0>         0.0887
     34 H11         9.9863    2.7590    1.4331 H         1 <0>         0.0666
     35 H12        10.5020    2.1748    3.7871 H         1 <0>         0.0602
     36 H13        11.1293    3.7894    3.3774 H         1 <0>         0.0605
     37 H14         9.9916    3.8092    5.5806 H         1 <0>         0.0695
     38 H15         7.5468    3.4083    5.6853 H         1 <0>         0.0636
     39 H16         8.4100    1.9522    5.1348 H         1 <0>         0.0634
     40 H17         8.4273    5.6747    5.1103 H         1 <0>         0.0603
     41 H18         9.9177    5.8333    4.1502 H         1 <0>         0.0604
     42 H19         7.9116    6.2590    2.7563 H         1 <0>         0.0668
     43 H20         9.9146    5.2200    1.7281 H         1 <0>         0.0578
     44 H21         8.4220    4.6246    0.9627 H         1 <0>         0.0626
     45 H22         6.3299    4.4020    2.3104 H         1 <0>         0.0888
     46 H23         6.3321    4.8389    4.0359 H         1 <0>         0.0538
@<TRIPOS>BOND
     1    1    4 1
     2    1    2 1
     3    1   26 1
     4    1   27 1
     5    2    3 1
     6    2    4 1
     7    2    9 1
     8    4    5 1
     9    4    6 1
    10    6    7 2
    11    6    8 1
    12    9   10 2
    13    9   11 am
    14   11   12 1
    15   11   28 1
    16   12   13 am
    17   12   29 1
    18   13   14 2
    19   13   15 1
    20   15   16 1
    21   15   30 1
    22   15   31 1
    23   16   21 1
    24   16   25 1
    25   16   17 1
    26   17   18 1
    27   17   32 1
    28   17   33 1
    29   18   24 1
    30   18   19 1
    31   18   34 1
    32   19   20 1
    33   19   35 1
    34   19   36 1
    35   20   21 1
    36   20   22 1
    37   20   37 1
    38   21   38 1
    39   21   39 1
    40   22   23 1
    41   22   40 1
    42   22   41 1
    43   23   24 1
    44   23   25 1
    45   23   42 1
    46   24   43 1
    47   24   44 1
    48   25   45 1
    49   25   46 1
@<TRIPOS>MOLECULE
ZINC64411005
   47    50     0     0     0
SMALL
USER_CHARGES

@<TRIPOS>ATOM
      1 C1         -8.5253    1.8975   -0.2822 C.3       1 <0>        -0.1454
      2 C2         -7.0440    2.2501   -0.4319 C.3       1 <0>        -0.0766
      3 C3         -6.2131    1.0015   -0.2843 C.2       1 <0>         0.2355
      4 C4         -5.8200    0.3098   -1.3930 C.2       1 <0>        -0.3445
      5 C5         -5.0448   -0.8520   -1.2296 C.2       1 <0>         0.5456
      6 O1         -4.6758   -1.4946   -2.1989 O.2       1 <0>        -0.5380
      7 N1         -4.7163   -1.2425    0.0204 N.am      1 <0>        -0.6555
      8 H1         -4.1820   -2.0406    0.1563 H         1 <0>         0.4053
      9 C6         -5.1368   -0.5125    1.0886 C.2       1 <0>         0.6633
     10 N2         -5.8590    0.5784    0.9271 N.2       1 <0>        -0.5768
     11 N3         -4.7996   -0.9148    2.3530 N.pl3     1 <0>        -0.4038
     12 C7         -5.1679   -0.2579    3.6185 C.3       1 <0>         0.2415
     13 H2         -4.7614    0.7528    3.6557 H         1 <0>         0.0978
     14 C8         -4.5345   -1.1227    4.6869 C.2       1 <0>        -0.3311
     15 C9         -3.9005   -2.1275    4.0529 C.2       1 <0>         0.1939
     16 N4         -4.0398   -2.0379    2.7044 N.pl3     1 <0>        -0.5270
     17 C10        -4.5963   -0.9151    6.0842 C.2       1 <0>         0.6170
     18 O2         -5.5889   -1.2484    6.7061 O.2       1 <0>        -0.5048
     19 N5         -3.5566   -0.3483    6.7278 N.am      1 <0>        -0.5499
     20 C11        -2.3618    0.1961    6.0771 C.3       1 <0>         0.1068
     21 C12        -1.4830    0.7227    7.2235 C.3       1 <0>        -0.0874
     22 C13        -2.2748    0.4258    8.4771 C.ar      1 <0>        -0.1375
     23 C14        -3.4630   -0.1883    8.1130 C.ar      1 <0>         0.1425
     24 C15        -4.3689   -0.5559    9.1096 C.ar      1 <0>        -0.1299
     25 C16        -4.0835   -0.3061   10.4352 C.ar      1 <0>        -0.0941
     26 C17        -2.8971    0.3102   10.7875 C.ar      1 <0>        -0.1391
     27 C18        -1.9914    0.6705    9.8067 C.ar      1 <0>        -0.0804
     28 C19        -6.6888   -0.2277    3.7828 C.3       1 <0>        -0.1607
     29 H3         -9.1263    2.8006   -0.3890 H         1 <0>         0.0667
     30 H4         -8.8076    1.1799   -1.0526 H         1 <0>         0.0575
     31 H5         -8.6972    1.4609    0.7016 H         1 <0>         0.0607
     32 H6         -6.8721    2.6867   -1.4157 H         1 <0>         0.0885
     33 H7         -6.7616    2.9676    0.3384 H         1 <0>         0.0889
     34 H8         -6.1000    0.6487   -2.3794 H         1 <0>         0.1548
     35 H9         -3.3519   -2.9107    4.5550 H         1 <0>         0.1908
     36 H10        -3.6615   -2.6663    2.0697 H         1 <0>         0.4364
     37 H11        -1.8391   -0.5880    5.5295 H         1 <0>         0.0815
     38 H12        -2.6348    1.0100    5.4054 H         1 <0>         0.0834
     39 H13        -0.5284    0.1968    7.2432 H         1 <0>         0.0915
     40 H14        -1.3247    1.7961    7.1190 H         1 <0>         0.0923
     41 H15        -5.2974   -1.0377    8.8411 H         1 <0>         0.1391
     42 H16        -4.7892   -0.5926   11.2009 H         1 <0>         0.1284
     43 H17        -2.6759    0.5048   11.8266 H         1 <0>         0.1269
     44 H18        -1.0648    1.1531   10.0801 H         1 <0>         0.1253
     45 H19        -7.0800   -1.2438    3.7314 H         1 <0>         0.0602
     46 H20        -6.9413    0.2105    4.7483 H         1 <0>         0.0786
     47 H21        -7.1285    0.3716    2.9856 H         1 <0>         0.0818
@<TRIPOS>BOND
     1    1    2 1
     2    1   29 1
     3    1   30 1
     4    1   31 1
     5    2    3 1
     6    2   32 1
     7    2   33 1
     8    3   10 1
     9    3    4 2
    10    4    5 1
    11    4   34 1
    12    5    6 2
    13    5    7 am
    14    7    8 1
    15    7    9 1
    16    9   10 2
    17    9   11 1
    18   11   16 1
    19   11   12 1
    20   12   13 1
    21   12   14 1
    22   12   28 1
    23   14   15 2
    24   14   17 1
    25   15   16 1
    26   15   35 1
    27   16   36 1
    28   17   18 2
    29   17   19 am
    30   19   23 1
    31   19   20 1
    32   20   21 1
    33   20   37 1
    34   20   38 1
    35   21   22 1
    36   21   39 1
    37   21   40 1
    38   22   27 ar
    39   22   23 ar
    40   23   24 ar
    41   24   25 ar
    42   24   41 1
    43   25   26 ar
    44   25   42 1
    45   26   27 ar
    46   26   43 1
    47   27   44 1
    48   28   45 1
    49   28   46 1
    50   28   47 1
@<TRIPOS>MOLECULE
ZINC00889994
   62    66     0     0     0
SMALL
USER_CHARGES
3-[(1-cyclohexyltetrazol-5-yl)-morpholino-methyl]-6,8-dimethyl-1H-quinolin-2-one
@<TRIPOS>ATOM
      1 C1          0.6971   -2.4221   -0.5269 C.3       1 <0>        -0.1218
      2 C2          0.7952   -0.9213   -0.4319 C.ar      1 <0>        -0.0981
      3 C3          2.0423   -0.3112   -0.4430 C.ar      1 <0>        -0.0398
      4 C4          2.1556    1.0595   -0.3578 C.ar      1 <0>        -0.1214
      5 C5          1.0096    1.8420   -0.2586 C.ar      1 <0>         0.1955
      6 C6         -0.2529    1.2199   -0.2471 C.ar      1 <0>        -0.1477
      7 C7         -0.3437   -0.1733   -0.3352 C.ar      1 <0>        -0.0517
      8 C8         -1.4529    2.0514   -0.1362 C.2       1 <0>         0.0760
      9 C9         -1.3036    3.3970   -0.0607 C.2       1 <0>        -0.2846
     10 C10        -0.0144    3.9712   -0.0765 C.2       1 <0>         0.5435
     11 O1          0.0975    5.1825   -0.0013 O.2       1 <0>        -0.5263
     12 N1          1.0934    3.2153   -0.1720 N.am      1 <0>        -0.6171
     13 H1          1.9912    3.6557   -0.1803 H         1 <0>         0.4335
     14 C11        -2.5185    4.2822    0.0473 C.3       1 <0>         0.2162
     15 H2         -3.4190    3.6787   -0.0657 H         1 <0>         0.1601
     16 C12        -2.5309    4.9559    1.3953 C.2       1 <0>         0.1096
     17 N2         -1.7744    5.9556    1.7776 N.2       1 <0>        -0.2484
     18 N3         -2.0841    6.2466    2.9939 N.2       1 <0>        -0.0563
     19 N4         -3.0187    5.4585    3.3973 N.2       1 <0>        -0.0513
     20 N5         -3.3253    4.6516    2.4384 N.pl3     1 <0>        -0.2750
     21 C13        -4.3440    3.5996    2.4785 C.3       1 <0>         0.1359
     22 C14        -5.7120    4.2248    2.7587 C.3       1 <0>        -0.1307
     23 C15        -6.7760    3.1261    2.8006 C.3       1 <0>        -0.1154
     24 C16        -6.4348    2.1278    3.9088 C.3       1 <0>        -0.1310
     25 C17        -5.0668    1.5026    3.6286 C.3       1 <0>        -0.1149
     26 C18        -4.0029    2.6013    3.5867 C.3       1 <0>        -0.1313
     27 C19        -3.6155    6.2249   -0.8961 C.3       1 <0>        -0.0413
     28 C20        -3.5007    7.3034   -1.9766 C.3       1 <0>         0.0400
     29 O2         -3.4357    6.6789   -3.2615 O.3       1 <0>        -0.3529
     30 C21        -2.3379    5.7738   -3.4068 C.3       1 <0>         0.0379
     31 C22        -2.4409    4.6798   -2.3409 C.3       1 <0>        -0.0376
     32 C23         3.5157    1.7084   -0.3715 C.3       1 <0>        -0.1234
     33 H3          0.6309   -2.7163   -1.5743 H         1 <0>         0.0796
     34 H4          1.5821   -2.8731   -0.0780 H         1 <0>         0.0751
     35 H5         -0.1926   -2.7623    0.0031 H         1 <0>         0.0735
     36 H6          2.9330   -0.9172   -0.5197 H         1 <0>         0.1436
     37 H7         -1.3101   -0.6554   -0.3272 H         1 <0>         0.1431
     38 H8         -2.4354    1.6033   -0.1210 H         1 <0>         0.1584
     39 H9         -4.3704    3.0826    1.5193 H         1 <0>         0.1115
     40 H10        -5.6856    4.7418    3.7180 H         1 <0>         0.0915
     41 H11        -5.9551    4.9359    1.9693 H         1 <0>         0.0731
     42 H12        -6.8024    2.6091    1.8414 H         1 <0>         0.0688
     43 H13        -7.7506    3.5715    3.0003 H         1 <0>         0.0831
     44 H14        -7.1928    1.3451    3.9387 H         1 <0>         0.0776
     45 H15        -6.4084    2.6448    4.8680 H         1 <0>         0.0723
     46 H16        -5.0932    0.9856    2.6694 H         1 <0>         0.0686
     47 H17        -4.8238    0.7914    4.4181 H         1 <0>         0.0826
     48 H18        -3.0283    2.1559    3.3871 H         1 <0>         0.0735
     49 H19        -3.9765    3.1183    4.5459 H         1 <0>         0.0907
     50 H20        -4.5459    5.6731   -1.0300 H         1 <0>         0.1410
     51 H21        -3.6078    6.6933    0.0881 H         1 <0>         0.1307
     52 H22        -2.5970    7.8899   -1.8108 H         1 <0>         0.0858
     53 H23        -4.3718    7.9571   -1.9332 H         1 <0>         0.1453
     54 H24        -1.4004    6.3158   -3.2827 H         1 <0>         0.0834
     55 H25        -2.3686    5.3206   -4.3977 H         1 <0>         0.1458
     56 H26        -1.5759    4.0203   -2.4113 H         1 <0>         0.1364
     57 H27        -3.3526    4.1033   -2.4979 H         1 <0>         0.1433
     58 H28         3.8012    1.9321   -1.3994 H         1 <0>         0.0836
     59 H29         3.4832    2.6324    0.2058 H         1 <0>         0.0652
     60 H30         4.2463    1.0301    0.0691 H         1 <0>         0.0864
     61 N6         -2.4544    5.3173   -1.0072 N.4       1 <0>        -0.3905
     62 H31        -1.5921    5.8618   -0.8884 H         1 <0>         0.4470
@<TRIPOS>BOND
     1    1    2 1
     2    1   33 1
     3    1   34 1
     4    1   35 1
     5    2    7 ar
     6    2    3 ar
     7    3    4 ar
     8    3   36 1
     9    4    5 ar
    10    4   32 1
    11    5   12 1
    12    5    6 ar
    13    6    7 ar
    14    6    8 1
    15    7   37 1
    16    8    9 2
    17    8   38 1
    18    9   10 1
    19    9   14 1
    20   10   11 2
    21   10   12 am
    22   12   13 1
    23   14   15 1
    24   14   16 1
    25   14   61 1
    26   16   20 1
    27   16   17 2
    28   17   18 1
    29   18   19 2
    30   19   20 1
    31   20   21 1
    32   21   26 1
    33   21   22 1
    34   21   39 1
    35   22   23 1
    36   22   40 1
    37   22   41 1
    38   23   24 1
    39   23   42 1
    40   23   43 1
    41   24   25 1
    42   24   44 1
    43   24   45 1
    44   25   26 1
    45   25   46 1
    46   25   47 1
    47   26   48 1
    48   26   49 1
    49   27   28 1
    50   27   50 1
    51   27   51 1
    52   27   61 1
    53   28   29 1
    54   28   52 1
    55   28   53 1
    56   29   30 1
    57   30   31 1
    58   30   54 1
    59   30   55 1
    60   31   56 1
    61   31   57 1
    62   31   61 1
    63   32   58 1
    64   32   59 1
    65   32   60 1
    66   61   62 1
@<TRIPOS>MOLECULE
ZINC02452225
   54    59     0     0     0
SMALL
USER_CHARGES
(3aR,4R,8aS,8bS)-2-(2-bromo-4-methyl-phenyl)-5'-methyl-spiro[3a,6,7,8,8a,8b-hexahydropyrrolo[3,4-f]pyrrolizine-4,3'-indoline]-1,2',3-trione
@<TRIPOS>ATOM
      1 C1         -6.4608    4.2006    0.3818 C.3       1 <0>        -0.1230
      2 C2         -5.5795    3.1192    0.9518 C.ar      1 <0>        -0.0853
      3 C3         -6.1451    2.0027    1.5404 C.ar      1 <0>        -0.0466
      4 C4         -5.3433    1.0100    2.0639 C.ar      1 <0>        -0.1174
      5 C5         -3.9564    1.1241    2.0026 C.ar      1 <0>         0.1631
      6 C6         -3.3986    2.2516    1.4076 C.ar      1 <0>        -0.1925
      7 C7         -4.2029    3.2407    0.8873 C.ar      1 <0>        -0.0462
      8 C8         -1.9094    2.0719    1.5004 C.3       1 <0>         0.0925
      9 C9         -1.2578    2.0685    0.1066 C.3       1 <0>        -0.1173
     10 H1         -1.9425    1.7820   -0.6916 H         1 <0>         0.1850
     11 C10        -0.7015    3.5088   -0.0633 C.3       1 <0>        -0.1350
     12 H2         -1.0849    4.0117   -0.9511 H         1 <0>         0.1855
     13 C11        -1.0709    4.2461    1.2369 C.3       1 <0>         0.0431
     14 H3         -1.9570    4.8689    1.1142 H         1 <0>         0.1806
     15 C12         0.0900    2.7750    2.6652 C.3       1 <0>        -0.0393
     16 C13         0.9004    4.0866    2.6872 C.3       1 <0>        -0.1462
     17 C14         0.1492    5.0401    1.7375 C.3       1 <0>        -0.1687
     18 C15         0.7952    3.3009   -0.1157 C.2       1 <0>         0.5260
     19 O1          1.6204    4.1795   -0.2448 O.2       1 <0>        -0.4192
     20 N1          1.0670    1.9961    0.0026 N.am      1 <0>        -0.5226
     21 C16        -0.0106    1.2142    0.1362 C.2       1 <0>         0.5135
     22 O2          0.0097    0.0081    0.2568 O.2       1 <0>        -0.3994
     23 C17         2.3745    1.4894   -0.0122 C.ar      1 <0>         0.1084
     24 C18         3.0720    1.3296    1.1773 C.ar      1 <0>        -0.0858
     25 C19         4.3597    0.8304    1.1598 C.ar      1 <0>        -0.0935
     26 C20         4.9546    0.4892   -0.0412 C.ar      1 <0>        -0.0466
     27 C21         4.2630    0.6469   -1.2279 C.ar      1 <0>        -0.0813
     28 C22         2.9722    1.1410   -1.2165 C.ar      1 <0>        -0.0654
     29 Br1         2.0239    1.3493   -2.8392 Br        1 <0>        -0.0282
     30 C23         6.3593   -0.0561   -0.0563 C.3       1 <0>        -0.1256
     31 C24        -1.7191    0.7508    2.1963 C.2       1 <0>         0.5300
     32 O3         -0.6623    0.2235    2.4721 O.2       1 <0>        -0.4301
     33 N2         -2.9496    0.2676    2.4530 N.am      1 <0>        -0.6387
     34 H4         -6.6733    4.9406    1.1534 H         1 <0>         0.0819
     35 H5         -5.9513    4.6821   -0.4529 H         1 <0>         0.0749
     36 H6         -7.3952    3.7614    0.0324 H         1 <0>         0.0793
     37 H7         -7.2197    1.9078    1.5906 H         1 <0>         0.1496
     38 H8         -5.7923    0.1413    2.5224 H         1 <0>         0.1460
     39 H9         -3.7589    4.1118    0.4286 H         1 <0>         0.1381
     40 H10         0.0705    2.3260    3.6582 H         1 <0>         0.1537
     41 H11         0.5161    2.0777    1.9439 H         1 <0>         0.1305
     42 H12         0.9251    4.4992    3.6958 H         1 <0>         0.1139
     43 H13         1.9138    3.9113    2.3260 H         1 <0>         0.1137
     44 H14         0.7881    5.3179    0.8991 H         1 <0>         0.1480
     45 H15        -0.1754    5.9304    2.2761 H         1 <0>         0.1170
     46 H16         2.6081    1.5951    2.1158 H         1 <0>         0.1313
     47 H17         4.9026    0.7060    2.0851 H         1 <0>         0.1456
     48 H18         4.7302    0.3796   -2.1642 H         1 <0>         0.1484
     49 H19         6.3283   -1.1424    0.0282 H         1 <0>         0.0849
     50 H20         6.8470    0.2218   -0.9906 H         1 <0>         0.0781
     51 H21         6.9188    0.3577    0.7827 H         1 <0>         0.0787
     52 H22        -3.1171   -0.5771    2.8994 H         1 <0>         0.4376
     53 N3         -1.2514    3.1814    2.1970 N.4       1 <0>        -0.3676
     54 H23        -1.8248    3.4947    2.9891 H         1 <0>         0.4423
@<TRIPOS>BOND
     1    1    2 1
     2    1   34 1
     3    1   35 1
     4    1   36 1
     5    2    7 ar
     6    2    3 ar
     7    3    4 ar
     8    3   37 1
     9    4    5 ar
    10    4   38 1
    11    5   33 1
    12    5    6 ar
    13    6    7 ar
    14    6    8 1
    15    7   39 1
    16    8    9 1
    17    8   31 1
    18    8   53 1
    19    9   10 1
    20    9   21 1
    21    9   11 1
    22   11   12 1
    23   11   13 1
    24   11   18 1
    25   13   14 1
    26   13   17 1
    27   13   53 1
    28   15   16 1
    29   15   40 1
    30   15   41 1
    31   15   53 1
    32   16   17 1
    33   16   42 1
    34   16   43 1
    35   17   44 1
    36   17   45 1
    37   18   19 2
    38   18   20 am
    39   20   21 am
    40   20   23 1
    41   21   22 2
    42   23   28 ar
    43   23   24 ar
    44   24   25 ar
    45   24   46 1
    46   25   26 ar
    47   25   47 1
    48   26   27 ar
    49   26   30 1
    50   27   28 ar
    51   27   48 1
    52   28   29 1
    53   30   49 1
    54   30   50 1
    55   30   51 1
    56   31   32 2
    57   31   33 am
    58   33   52 1
    59   53   54 1
@<TRIPOS>MOLECULE
ZINC39729393
   48    52     0     0     0
SMALL
USER_CHARGES

@<TRIPOS>ATOM
      1 C1         -0.4315    0.9003    0.0951 C.ar      1 <0>        -0.0873
      2 C2          0.6735    1.7305    0.1192 C.ar      1 <0>        -0.1027
      3 C3          1.9453    1.1893    0.0945 C.ar      1 <0>        -0.0863
      4 C4          2.1121   -0.1821    0.0462 C.ar      1 <0>        -0.1451
      5 C5          1.0070   -1.0124    0.0231 C.ar      1 <0>        -0.1207
      6 C6         -0.2647   -0.4711    0.0464 C.ar      1 <0>        -0.0991
      7 C7          3.4985   -0.7721    0.0183 C.3       1 <0>         0.1563
      8 H1          4.2110   -0.0157   -0.3109 H         1 <0>         0.1559
      9 C8          3.8761   -1.2574    1.4144 C.2       1 <0>        -0.1436
     10 C9          3.5827   -0.5647    2.5863 C.2       1 <0>        -0.1435
     11 C10         3.9547   -1.0732    3.7844 C.2       1 <0>        -0.1516
     12 S1          4.7596   -2.5954    3.3054 S.3       1 <0>         0.1515
     13 C11         4.5418   -2.4382    1.5562 C.2       1 <0>        -0.1932
     14 C12         4.9696   -3.3529    0.4552 C.3       1 <0>        -0.0564
     15 C13         4.8392   -2.5785   -0.8678 C.3       1 <0>        -0.0131
     16 N1          3.5296   -1.9125   -0.9051 N.4       1 <0>        -0.3757
     17 C14         3.2644   -1.4370   -2.2695 C.3       1 <0>        -0.0432
     18 C15         3.1732   -2.6161   -3.2036 C.2       1 <0>         0.5266
     19 O1          3.3151   -3.7417   -2.7749 O.2       1 <0>        -0.4086
     20 N2          2.9338   -2.4196   -4.5158 N.am      1 <0>        -0.6359
     21 C16         1.9079   -3.0117   -5.0946 C.2       1 <0>         0.3449
     22 C17         0.9415   -3.7795   -4.2807 C.2       1 <0>        -0.2341
     23 C18        -0.1112   -4.3847   -4.8865 C.2       1 <0>         0.2530
     24 N3         -1.1575   -5.1465   -4.4540 N.2       1 <0>        -0.5550
     25 C19        -1.8868   -5.4691   -5.4971 C.2       1 <0>         0.5484
     26 O2         -3.0095   -6.2238   -5.4380 O.3       1 <0>        -0.3817
     27 N4         -1.3790   -4.9563   -6.6307 N.2       1 <0>        -0.4158
     28 C20        -0.2857   -4.2740   -6.3485 C.2       1 <0>         0.1566
     29 C21         0.6778   -3.5114   -7.1472 C.2       1 <0>         0.0710
     30 C22         1.7210   -2.9037   -6.5485 C.2       1 <0>        -0.1362
     31 Br1         2.9550   -1.9142   -7.5848 Br        1 <0>         0.0319
     32 H2         -1.4251    1.3229    0.1190 H         1 <0>         0.1378
     33 H3          0.5433    2.8019    0.1569 H         1 <0>         0.1392
     34 H4          2.8086    1.8379    0.1126 H         1 <0>         0.1361
     35 H5          1.1373   -2.0838   -0.0150 H         1 <0>         0.1167
     36 H6         -1.1281   -1.1198    0.0279 H         1 <0>         0.1380
     37 H7          3.0586    0.3784    2.5392 H         1 <0>         0.1424
     38 H8          3.8043   -0.6651    4.7730 H         1 <0>         0.1998
     39 H9          6.0060   -3.6547    0.6067 H         1 <0>         0.1336
     40 H10         4.3265   -4.2326    0.4341 H         1 <0>         0.1156
     41 H11         5.6295   -1.8307   -0.9326 H         1 <0>         0.1409
     42 H12         4.9198   -3.2711   -1.7057 H         1 <0>         0.1501
     43 H13         2.3237   -0.8867   -2.2861 H         1 <0>         0.1823
     44 H14         4.0744   -0.7816   -2.5897 H         1 <0>         0.1808
     45 H15         3.5165   -1.8426   -5.0340 H         1 <0>         0.4415
     46 H16         1.0727   -3.8585   -3.2117 H         1 <0>         0.1603
     47 H17         0.5486   -3.4319   -8.2165 H         1 <0>         0.1880
     48 H18         2.8151   -2.5738   -0.6401 H         1 <0>         0.4295
@<TRIPOS>BOND
     1    1    6 ar
     2    1    2 ar
     3    1   32 1
     4    2    3 ar
     5    2   33 1
     6    3    4 ar
     7    3   34 1
     8    4    5 ar
     9    4    7 1
    10    5    6 ar
    11    5   35 1
    12    6   36 1
    13    7    8 1
    14    7   16 1
    15    7    9 1
    16    9   13 2
    17    9   10 1
    18   10   11 2
    19   10   37 1
    20   11   12 1
    21   11   38 1
    22   12   13 1
    23   13   14 1
    24   14   15 1
    25   14   39 1
    26   14   40 1
    27   15   16 1
    28   15   41 1
    29   15   42 1
    30   16   17 1
    31   16   48 1
    32   17   18 1
    33   17   43 1
    34   17   44 1
    35   18   19 2
    36   18   20 am
    37   20   21 2
    38   20   45 1
    39   21   30 1
    40   21   22 1
    41   22   23 2
    42   22   46 1
    43   23   28 1
    44   23   24 1
    45   24   25 2
    46   25   26 1
    47   25   27 1
    48   27   28 2
    49   28   29 1
    50   29   30 2
    51   29   47 1
    52   30   31 1
@<TRIPOS>MOLECULE
ZINC55054000
   61    65     0     0     0
SMALL
USER_CHARGES

@<TRIPOS>ATOM
      1 C1         -0.0631    1.5393    0.0741 C.3       1 <0>        -0.1488
      2 C2         -0.0342    0.0098    0.0523 C.3       1 <0>        -0.0867
      3 H1          0.4745   -0.3329   -0.8487 H         1 <0>         0.0755
      4 C3         -1.4670   -0.5304    0.0691 C.3       1 <0>        -0.1191
      5 C4         -1.4602   -2.0369   -0.2008 C.3       1 <0>        -0.0510
      6 C5         -0.4858   -2.6993    0.7613 C.2       1 <0>        -0.0744
      7 C6         -0.4690   -4.1130    1.0783 C.2       1 <0>        -0.1602
      8 C7          0.4693   -4.5557    1.9642 C.2       1 <0>        -0.1848
      9 S1          1.3237   -3.1730    2.3879 S.3       1 <0>         0.1777
     10 C8          0.4628   -1.9803    1.4057 C.2       1 <0>        -0.1839
     11 C9          0.7103   -0.5084    1.2921 C.3       1 <0>        -0.0348
     12 C10        -1.4357   -5.0435    0.4635 C.2       1 <0>         0.5645
     13 O1         -2.2663   -4.6263   -0.3255 O.2       1 <0>        -0.5669
     14 N1         -1.4005   -6.3465    0.7723 N.2       1 <0>        -0.6663
     15 C11        -2.3326   -7.1652    0.3019 C.2       1 <0>         0.6516
     16 N2         -3.3023   -6.8266   -0.5909 N.pl3     1 <0>        -0.6078
     17 C12        -4.0823   -7.9526   -0.8352 C.ar      1 <0>         0.0891
     18 C13        -5.1868   -8.1817   -1.6438 C.ar      1 <0>        -0.0944
     19 C14        -5.7634   -9.4354   -1.6816 C.ar      1 <0>        -0.0921
     20 C15        -5.2448  -10.4659   -0.9157 C.ar      1 <0>        -0.0988
     21 C16        -4.1465  -10.2485   -0.1081 C.ar      1 <0>        -0.1023
     22 C17        -3.5592   -8.9919   -0.0633 C.ar      1 <0>         0.0696
     23 N3         -2.4677   -8.4787    0.6307 N.pl3     1 <0>        -0.4957
     24 C18        -1.6132   -9.2236    1.5588 C.3       1 <0>         0.1145
     25 C19        -2.1859   -9.1205    2.9738 C.3       1 <0>        -0.0320
     26 N4         -1.3291   -9.8674    3.9045 N.4       1 <0>        -0.3780
     27 C20        -1.3673  -11.2947    3.5641 C.3       1 <0>        -0.0157
     28 C21        -0.4139  -12.0667    4.4787 C.3       1 <0>        -0.1452
     29 C22        -0.8464  -11.8760    5.9353 C.3       1 <0>        -0.1397
     30 C23        -0.8746  -10.3791    6.2573 C.3       1 <0>        -0.1458
     31 C24        -1.8109   -9.6696    5.2768 C.3       1 <0>        -0.0058
     32 H2          0.9575    1.9221    0.0662 H         1 <0>         0.0587
     33 H3         -0.5951    1.9052   -0.8041 H         1 <0>         0.0601
     34 H4         -0.5721    1.8804    0.9756 H         1 <0>         0.0574
     35 H5         -1.9144   -0.3395    1.0445 H         1 <0>         0.0643
     36 H6         -2.0524   -0.0275   -0.7006 H         1 <0>         0.0715
     37 H7         -2.4604   -2.4410   -0.0443 H         1 <0>         0.0868
     38 H8         -1.1443   -2.2232   -1.2273 H         1 <0>         0.0760
     39 H9          0.6267   -5.5653    2.3139 H         1 <0>         0.1880
     40 H10         1.7786   -0.3205    1.1844 H         1 <0>         0.0835
     41 H11         0.3359   -0.0043    2.1830 H         1 <0>         0.0850
     42 H12        -5.5947   -7.3804   -2.2421 H         1 <0>         0.1403
     43 H13        -6.6229   -9.6132   -2.3109 H         1 <0>         0.1440
     44 H14        -5.7018  -11.4439   -0.9500 H         1 <0>         0.1426
     45 H15        -3.7452  -11.0548    0.4880 H         1 <0>         0.1298
     46 H16        -1.5755  -10.2704    1.2575 H         1 <0>         0.1130
     47 H17        -0.6072   -8.8043    1.5426 H         1 <0>         0.1248
     48 H18        -2.2237   -8.0737    3.2752 H         1 <0>         0.1413
     49 H19        -3.1920   -9.5398    2.9901 H         1 <0>         0.1352
     50 H20        -2.3814  -11.6721    3.6954 H         1 <0>         0.1314
     51 H21        -1.0623  -11.4285    2.5262 H         1 <0>         0.1296
     52 H22        -0.4450  -13.1265    4.2256 H         1 <0>         0.1137
     53 H23         0.6006  -11.6902    4.3480 H         1 <0>         0.0895
     54 H24        -1.8409  -12.2985    6.0786 H         1 <0>         0.0821
     55 H25        -0.1377  -12.3773    6.5946 H         1 <0>         0.0955
     56 H26        -1.2351  -10.2326    7.2755 H         1 <0>         0.1137
     57 H27         0.1303   -9.9676    6.1635 H         1 <0>         0.0893
     58 H28        -1.8335   -8.6037    5.5033 H         1 <0>         0.1316
     59 H29        -2.8156  -10.0817    5.3716 H         1 <0>         0.1293
     60 H30        -3.4282   -5.9508   -0.9883 H         1 <0>         0.4539
     61 H31        -0.3807   -9.5313    3.8303 H         1 <0>         0.4255
@<TRIPOS>BOND
     1    1    2 1
     2    1   32 1
     3    1   33 1
     4    1   34 1
     5    2    3 1
     6    2   11 1
     7    2    4 1
     8    4    5 1
     9    4   35 1
    10    4   36 1
    11    5    6 1
    12    5   37 1
    13    5   38 1
    14    6   10 2
    15    6    7 1
    16    7    8 2
    17    7   12 1
    18    8    9 1
    19    8   39 1
    20    9   10 1
    21   10   11 1
    22   11   40 1
    23   11   41 1
    24   12   13 2
    25   12   14 1
    26   14   15 2
    27   15   23 1
    28   15   16 1
    29   16   17 1
    30   16   60 1
    31   17   22 ar
    32   17   18 ar
    33   18   19 ar
    34   18   42 1
    35   19   20 ar
    36   19   43 1
    37   20   21 ar
    38   20   44 1
    39   21   22 ar
    40   21   45 1
    41   22   23 1
    42   23   24 1
    43   24   25 1
    44   24   46 1
    45   24   47 1
    46   25   26 1
    47   25   48 1
    48   25   49 1
    49   26   31 1
    50   26   27 1
    51   26   61 1
    52   27   28 1
    53   27   50 1
    54   27   51 1
    55   28   29 1
    56   28   52 1
    57   28   53 1
    58   29   30 1
    59   29   54 1
    60   29   55 1
    61   30   31 1
    62   30   56 1
    63   30   57 1
    64   31   58 1
    65   31   59 1
@<TRIPOS>MOLECULE
ZINC63384872
   51    55     0     0     0
SMALL
USER_CHARGES

@<TRIPOS>ATOM
      1 C1          0.0470    1.5219   -0.0379 C.3       1 <0>        -0.1677
      2 C2          0.0313   -0.0079   -0.0204 C.3       1 <0>         0.1282
      3 N1          0.7401   -0.4900    1.1677 N.am      1 <0>        -0.7313
      4 C3          0.8538   -1.8138    1.3937 C.2       1 <0>         0.7017
      5 O1          0.2912   -2.6058    0.6626 O.2       1 <0>        -0.5395
      6 N2          1.5910   -2.2596    2.4301 N.am      1 <0>        -0.6133
      7 C4          2.1370   -1.2993    3.3960 C.3       1 <0>         0.1052
      8 C5          3.6657   -1.4648    3.4767 C.3       1 <0>        -0.1032
      9 C6          3.9375   -2.9453    3.5756 C.2       1 <0>         0.0583
     10 C7          4.6510   -3.6534    4.4419 C.ar      1 <0>        -0.1546
     11 C8          5.5282   -3.2476    5.5520 C.ar      1 <0>        -0.0007
     12 C9          6.0975   -4.2547    6.2656 C.ar      1 <0>        -0.1543
     13 C10         5.8851   -5.6088    5.9887 C.ar      1 <0>         0.0586
     14 C11         5.1034   -6.0723    4.9811 C.ar      1 <0>        -0.2057
     15 C12         4.4565   -5.1075    4.1555 C.ar      1 <0>         0.3411
     16 N3          3.6829   -5.2677    3.1227 N.pl3     1 <0>        -0.5695
     17 C13         3.3421   -3.9475    2.5919 C.3       1 <0>         0.0946
     18 H1          3.7736   -3.8123    1.6001 H         1 <0>         0.1848
     19 C14         1.8315   -3.6970    2.5805 C.3       1 <0>         0.2183
     20 C15         1.1784   -4.2311    3.8141 C.ar      1 <0>        -0.1964
     21 C16         1.3537   -3.9287    5.1474 C.ar      1 <0>        -0.0193
     22 C17         0.5698   -4.6259    6.0614 C.ar      1 <0>        -0.1255
     23 C18        -0.3417   -5.5774    5.6484 C.ar      1 <0>        -0.0291
     24 C19        -0.5233   -5.8863    4.3095 C.ar      1 <0>        -0.1309
     25 C20         0.2569   -5.1936    3.3824 C.ar      1 <0>         0.1928
     26 N4          0.2825   -5.2993    2.0024 N.am      1 <0>        -0.5525
     27 C21         1.1788   -4.4564    1.4470 C.2       1 <0>         0.5479
     28 O2          1.4159   -4.3320    0.2640 O.2       1 <0>        -0.4296
     29 C22        -0.5634   -6.2170    1.2354 C.3       1 <0>         0.0797
     30 Br1         0.7571   -4.2633    7.9078 Br        1 <0>        -0.0256
     31 H2          1.0781    1.8744   -0.0621 H         1 <0>         0.0639
     32 H3         -0.4804    1.8806   -0.9218 H         1 <0>         0.0829
     33 H4         -0.4456    1.9006    0.8577 H         1 <0>         0.0642
     34 H5         -0.9999   -0.3604    0.0038 H         1 <0>         0.0725
     35 H6          0.5238   -0.3866   -0.9159 H         1 <0>         0.0728
     36 H7          1.1276    0.1436    1.7916 H         1 <0>         0.3976
     37 H8          1.8978   -0.2854    3.0751 H         1 <0>         0.1164
     38 H9          1.6994   -1.4825    4.3774 H         1 <0>         0.0945
     39 H10         4.1325   -1.0592    2.5791 H         1 <0>         0.1317
     40 H11         4.0497   -0.9554    4.3605 H         1 <0>         0.1308
     41 H12         5.7095   -2.2089    5.7859 H         1 <0>         0.1720
     42 H13         6.7475   -3.9958    7.0884 H         1 <0>         0.1571
     43 H14         6.3767   -6.3348    6.6193 H         1 <0>         0.1594
     44 H15         4.9765   -7.1313    4.8114 H         1 <0>         0.1693
     45 H16         2.0675   -3.1844    5.4682 H         1 <0>         0.1410
     46 H17        -0.9302   -6.0964    6.3906 H         1 <0>         0.1487
     47 H18        -1.2389   -6.6321    3.9966 H         1 <0>         0.1541
     48 H19        -1.1966   -6.7838    1.9179 H         1 <0>         0.0909
     49 H20        -1.1888   -5.6466    0.5487 H         1 <0>         0.0838
     50 H21         0.0658   -6.9035    0.6689 H         1 <0>         0.0797
     51 H22         3.3832   -6.1179    2.7646 H         1 <0>         0.4541
@<TRIPOS>BOND
     1    1    2 1
     2    1   31 1
     3    1   32 1
     4    1   33 1
     5    2    3 1
     6    2   34 1
     7    2   35 1
     8    3    4 am
     9    3   36 1
    10    4    5 2
    11    4    6 am
    12    6   19 1
    13    6    7 1
    14    7    8 1
    15    7   37 1
    16    7   38 1
    17    8    9 1
    18    8   39 1
    19    8   40 1
    20    9   17 1
    21    9   10 2
    22   10   15 ar
    23   10   11 ar
    24   11   12 ar
    25   11   41 1
    26   12   13 ar
    27   12   42 1
    28   13   14 ar
    29   13   43 1
    30   14   15 ar
    31   14   44 1
    32   15   16 2
    33   16   17 1
    34   16   51 1
    35   17   18 1
    36   17   19 1
    37   19   27 1
    38   19   20 1
    39   20   25 ar
    40   20   21 ar
    41   21   22 ar
    42   21   45 1
    43   22   23 ar
    44   22   30 1
    45   23   24 ar
    46   23   46 1
    47   24   25 ar
    48   24   47 1
    49   25   26 1
    50   26   27 am
    51   26   29 1
    52   27   28 2
    53   29   48 1
    54   29   49 1
    55   29   50 1
@<TRIPOS>MOLECULE
ZINC08453966
   77    83     0     0     0
SMALL
USER_CHARGES
1-(cyclohexylBLAHyl)-2-[4-(2-furylcarbonyl)piperazin-1-yl]-ethanone
@<TRIPOS>ATOM
      1 C1         -1.2742   13.8474    8.5969 C.2       1 <0>        -0.2188
      2 C2         -1.8379   13.2274    9.7229 C.2       1 <0>        -0.0888
      3 C3         -2.6167   12.2059    9.2599 C.2       1 <0>        -0.1102
      4 O1         -2.5428   12.2021    7.9128 O.3       1 <0>        -0.1718
      5 C4         -1.7342   13.1905    7.5092 C.2       1 <0>         0.0066
      6 C5         -3.4011   11.2791   10.0826 C.2       1 <0>         0.6189
      7 O2         -3.4952   11.4608   11.2822 O.2       1 <0>        -0.4924
      8 N1         -4.0177   10.2263    9.5100 N.am      1 <0>        -0.6293
      9 C6         -4.7426    9.2406   10.3261 C.3       1 <0>         0.0904
     10 C7         -4.2526    7.8393    9.9461 C.3       1 <0>        -0.0147
     11 C8         -3.5238    8.6005    7.7619 C.3       1 <0>        -0.0212
     12 C9         -3.9840   10.0330    8.0523 C.3       1 <0>         0.0723
     13 C10        -4.0824    6.2703    8.1098 C.3       1 <0>        -0.0323
     14 C11        -4.4565    6.0583    6.6655 C.2       1 <0>         0.5065
     15 O3         -4.9242    6.9722    6.0197 O.2       1 <0>        -0.5142
     16 N2         -4.2714    4.8531    6.0913 N.am      1 <0>        -0.5919
     17 C12        -3.7057    3.7234    6.8468 C.3       1 <0>         0.0872
     18 C13        -2.3501    3.3039    6.2709 C.3       1 <0>         0.0994
     19 N3         -2.4326    3.2635    4.8039 N.pl3     1 <0>        -0.4701
     20 C14        -1.5823    2.6792    3.9089 C.ar      1 <0>         0.1034
     21 C15        -0.4350    1.9095    4.0853 C.ar      1 <0>        -0.1326
     22 C16         0.2098    1.4650    2.9450 C.ar      1 <0>        -0.0834
     23 C17        -0.2459    1.7719    1.6733 C.ar      1 <0>        -0.0959
     24 C18        -1.3728    2.5259    1.4651 C.ar      1 <0>        -0.0609
     25 C19        -2.0538    2.9849    2.5977 C.ar      1 <0>        -0.0889
     26 C20        -3.2398    3.7761    2.7771 C.2       1 <0>        -0.1340
     27 C21        -3.4397    3.8663    4.1078 C.2       1 <0>         0.0162
     28 C22        -4.6274    4.6119    4.6780 C.3       1 <0>         0.2270
     29 H1         -5.5408    4.0218    4.6046 H         1 <0>         0.1098
     30 C23        -4.7693    5.9195    3.9183 C.3       1 <0>        -0.1064
     31 C24        -4.5395    5.8434    2.4272 C.3       1 <0>        -0.1164
     32 C25        -4.1983    4.4748    1.8532 C.3       1 <0>        -0.0488
     33 C26         0.5173    1.2558    0.4807 C.3       1 <0>        -0.0468
     34 C27         1.9458    1.8027    0.5137 C.3       1 <0>        -0.1095
     35 C28         2.7206    1.2787   -0.6971 C.3       1 <0>        -0.1213
     36 C29         2.7587   -0.2502   -0.6556 C.3       1 <0>        -0.1216
     37 C30         1.3301   -0.7970   -0.6887 C.3       1 <0>        -0.1214
     38 C31         0.5554   -0.2731    0.5222 C.3       1 <0>        -0.1100
     39 H2         -0.6026   14.6932    8.5991 H         1 <0>         0.1650
     40 H3         -1.6836   13.5033   10.7556 H         1 <0>         0.1658
     41 H4         -1.4900   13.4241    6.4835 H         1 <0>         0.2177
     42 H5         -5.8122    9.3198   10.1315 H         1 <0>         0.1005
     43 H6         -4.5452    9.4236   11.3823 H         1 <0>         0.1412
     44 H7         -4.8556    7.0912   10.4606 H         1 <0>         0.1465
     45 H8         -3.2081    7.7275   10.2371 H         1 <0>         0.1386
     46 H9         -2.4894    8.4785    8.0832 H         1 <0>         0.1323
     47 H10        -3.5983    8.4043    6.6922 H         1 <0>         0.1549
     48 H11        -4.9806   10.1883    7.6392 H         1 <0>         0.1020
     49 H12        -3.2876   10.7422    7.6049 H         1 <0>         0.1535
     50 H13        -4.6563    5.5887    8.7376 H         1 <0>         0.1618
     51 H14        -3.0179    6.0766    8.2416 H         1 <0>         0.1592
     52 H15        -3.5768    4.0178    7.8883 H         1 <0>         0.1049
     53 H16        -4.3926    2.8786    6.7958 H         1 <0>         0.1031
     54 H17        -1.5889    4.0235    6.5724 H         1 <0>         0.0810
     55 H18        -2.0855    2.3158    6.6474 H         1 <0>         0.1051
     56 H19        -0.0667    1.6662    5.0710 H         1 <0>         0.1245
     57 H20         1.1000    0.8625    3.0495 H         1 <0>         0.1233
     58 H21        -1.7196    2.7559    0.4684 H         1 <0>         0.1303
     59 H22        -4.0608    6.6347    4.3360 H         1 <0>         0.0795
     60 H23        -5.7759    6.3015    4.0886 H         1 <0>         0.0810
     61 H24        -3.7268    6.5253    2.1769 H         1 <0>         0.0633
     62 H25        -5.4403    6.2020    1.9292 H         1 <0>         0.0711
     63 H26        -3.7367    4.5957    0.8732 H         1 <0>         0.0797
     64 H27        -5.1082    3.8824    1.7566 H         1 <0>         0.0760
     65 H28         0.0244    1.5823   -0.4351 H         1 <0>         0.0773
     66 H29         1.9187    2.8919    0.4841 H         1 <0>         0.0613
     67 H30         2.4387    1.4762    1.4294 H         1 <0>         0.0624
     68 H31         3.7383    1.6683   -0.6736 H         1 <0>         0.0627
     69 H32         2.2277    1.6052   -1.6129 H         1 <0>         0.0625
     70 H33         3.2516   -0.5767    0.2601 H         1 <0>         0.0610
     71 H34         3.3107   -0.6235   -1.5183 H         1 <0>         0.0623
     72 H35         1.3573   -1.8863   -0.6591 H         1 <0>         0.0632
     73 H36         0.8372   -0.4706   -1.6044 H         1 <0>         0.0626
     74 H37         1.0483   -0.5996    1.4379 H         1 <0>         0.0627
     75 H38        -0.4624   -0.6627    0.4986 H         1 <0>         0.0624
     76 N4         -4.4081    7.6616    8.4860 N.4       1 <0>        -0.3822
     77 H39        -5.3827    7.8570    8.2289 H         1 <0>         0.4357
@<TRIPOS>BOND
     1    1    5 2
     2    1    2 1
     3    1   39 1
     4    2    3 2
     5    2   40 1
     6    3    4 1
     7    3    6 1
     8    4    5 1
     9    5   41 1
    10    6    7 2
    11    6    8 am
    12    8   12 1
    13    8    9 1
    14    9   10 1
    15    9   42 1
    16    9   43 1
    17   10   44 1
    18   10   45 1
    19   10   76 1
    20   11   12 1
    21   11   46 1
    22   11   47 1
    23   11   76 1
    24   12   48 1
    25   12   49 1
    26   13   14 1
    27   13   50 1
    28   13   51 1
    29   13   76 1
    30   14   15 2
    31   14   16 am
    32   16   28 1
    33   16   17 1
    34   17   18 1
    35   17   52 1
    36   17   53 1
    37   18   19 1
    38   18   54 1
    39   18   55 1
    40   19   27 1
    41   19   20 1
    42   20   25 ar
    43   20   21 ar
    44   21   22 ar
    45   21   56 1
    46   22   23 ar
    47   22   57 1
    48   23   24 ar
    49   23   33 1
    50   24   25 ar
    51   24   58 1
    52   25   26 1
    53   26   32 1
    54   26   27 2
    55   27   28 1
    56   28   29 1
    57   28   30 1
    58   30   31 1
    59   30   59 1
    60   30   60 1
    61   31   32 1
    62   31   61 1
    63   31   62 1
    64   32   63 1
    65   32   64 1
    66   33   38 1
    67   33   34 1
    68   33   65 1
    69   34   35 1
    70   34   66 1
    71   34   67 1
    72   35   36 1
    73   35   68 1
    74   35   69 1
    75   36   37 1
    76   36   70 1
    77   36   71 1
    78   37   38 1
    79   37   72 1
    80   37   73 1
    81   38   74 1
    82   38   75 1
    83   76   77 1
@<TRIPOS>MOLECULE
ZINC20942722
   76    81     0     0     0
SMALL
USER_CHARGES
1-benzyl-4-[5-[2-[[4-(1-piperidyl)-1-piperidyl]methyl]pyrrol-1-yl]-1,3,4-thiadiazol-2-yl]piperazine
@<TRIPOS>ATOM
      1 C1         -0.0559    4.2672    0.0251 C.ar      1 <0>        -0.1173
      2 C2          1.1505    3.5924    0.0100 C.ar      1 <0>        -0.1193
      3 C3          1.1693    2.2102    0.0028 C.ar      1 <0>        -0.1165
      4 C4         -0.0184    1.5028    0.0103 C.ar      1 <0>        -0.0829
      5 C5         -1.2248    2.1776    0.0197 C.ar      1 <0>        -0.0984
      6 C6         -1.2435    3.5598    0.0322 C.ar      1 <0>        -0.1204
      7 C7          0.0021   -0.0041    0.0020 C.3       1 <0>         0.0928
      8 N1          0.0219   -0.5011    1.3842 N.3       1 <0>        -0.5345
      9 C8          1.2789   -0.1413    2.0553 C.3       1 <0>         0.0496
     10 C9          1.2273   -0.6064    3.5125 C.3       1 <0>         0.0569
     11 N2          1.0092   -2.0591    3.5529 N.pl3     1 <0>        -0.4231
     12 C10        -0.2477   -2.4189    2.8819 C.3       1 <0>         0.0661
     13 C11        -0.1962   -1.9538    1.4247 C.3       1 <0>         0.0510
     14 C12         1.0280   -2.5289    4.8593 C.2       1 <0>         0.2501
     15 N3          0.1127   -3.2100    5.5329 N.2       1 <0>        -0.3010
     16 N4          0.2934   -3.5667    6.7291 N.2       1 <0>        -0.2616
     17 C13         1.4019   -3.2743    7.3883 C.2       1 <0>         0.2517
     18 S1          2.2928   -2.3806    6.1180 S.3       1 <0>         0.0408
     19 N5          1.7717   -3.5759    8.7001 N.pl3     1 <0>        -0.3419
     20 C14         2.9526   -3.2313    9.2942 C.2       1 <0>        -0.0080
     21 C15         2.9378   -3.6945   10.5607 C.2       1 <0>        -0.1632
     22 C16         1.7092   -4.3573   10.7547 C.2       1 <0>        -0.1733
     23 C17         1.0153   -4.2699    9.6015 C.2       1 <0>         0.0423
     24 C18        -0.3572   -4.8393    9.3507 C.3       1 <0>         0.1206
     25 N6         -1.3690   -3.8011    9.5880 N.3       1 <0>        -0.5281
     26 C19        -1.4003   -3.4105   11.0032 C.3       1 <0>         0.0491
     27 C20        -2.3577   -2.2309   11.1872 C.3       1 <0>        -0.1339
     28 C21        -3.7577   -2.6384   10.7198 C.3       1 <0>         0.0322
     29 C22        -3.6886   -3.0867    9.2573 C.3       1 <0>        -0.1348
     30 C23        -2.6926   -4.2415    9.1293 C.3       1 <0>         0.0600
     31 N7         -4.6683   -1.4919   10.8394 N.4       1 <0>        -0.3955
     32 C24        -4.1934   -0.3568   10.0379 C.3       1 <0>        -0.0125
     33 C25        -5.2357    0.7632   10.0695 C.3       1 <0>        -0.1449
     34 C26        -5.4658    1.1989   11.5192 C.3       1 <0>        -0.1401
     35 C27        -5.9132   -0.0119   12.3428 C.3       1 <0>        -0.1452
     36 C28        -4.8512   -1.1095   12.2453 C.3       1 <0>        -0.0058
     37 H1         -0.0705    5.3471    0.0311 H         1 <0>         0.1223
     38 H2          2.0784    4.1450    0.0041 H         1 <0>         0.1229
     39 H3          2.1118    1.6830   -0.0091 H         1 <0>         0.1189
     40 H4         -2.1527    1.6249    0.0211 H         1 <0>         0.1218
     41 H5         -2.1860    4.0870    0.0437 H         1 <0>         0.1224
     42 H6         -0.8959   -0.3802   -0.5101 H         1 <0>         0.0898
     43 H7          0.9002   -0.3557   -0.5270 H         1 <0>         0.0500
     44 H8          2.1209   -0.6298    1.5430 H         1 <0>         0.0527
     45 H9          1.4129    0.9500    2.0222 H         1 <0>         0.1002
     46 H10         2.1785   -0.3635    4.0088 H         1 <0>         0.0924
     47 H11         0.4023   -0.0962    4.0313 H         1 <0>         0.0678
     48 H12        -0.3816   -3.5102    2.9150 H         1 <0>         0.1002
     49 H13        -1.0897   -1.9305    3.3942 H         1 <0>         0.0701
     50 H14        -1.1473   -2.1958    0.9278 H         1 <0>         0.0973
     51 H15         0.6289   -2.4631    0.9052 H         1 <0>         0.0523
     52 H16         3.7578   -2.6807    8.8306 H         1 <0>         0.1723
     53 H17         3.7254   -3.5823   11.2912 H         1 <0>         0.1542
     54 H18         1.3828   -4.8454   11.6611 H         1 <0>         0.1487
     55 H19        -0.4254   -5.1865    8.3092 H         1 <0>         0.1043
     56 H20        -0.5332   -5.6852   10.0314 H         1 <0>         0.0653
     57 H21        -1.7453   -4.2603   11.6106 H         1 <0>         0.0458
     58 H22        -0.3904   -3.1160   11.3248 H         1 <0>         0.1011
     59 H23        -2.3917   -1.9486   12.2498 H         1 <0>         0.0884
     60 H24        -2.0048   -1.3759   10.5918 H         1 <0>         0.0923
     61 H25        -4.1627   -3.4402   11.3547 H         1 <0>         0.1317
     62 H26        -4.6839   -3.4205    8.9287 H         1 <0>         0.0920
     63 H27        -3.3590   -2.2447    8.6309 H         1 <0>         0.0951
     64 H28        -2.6300   -4.5562    8.0771 H         1 <0>         0.1016
     65 H29        -3.0315   -5.0874    9.7455 H         1 <0>         0.0456
     66 H30        -3.2447    0.0140   10.4533 H         1 <0>         0.1255
     67 H31        -4.0365   -0.6818    8.9988 H         1 <0>         0.1313
     68 H32        -4.8726    1.6186    9.4809 H         1 <0>         0.1098
     69 H33        -6.1802    0.3974    9.6404 H         1 <0>         0.0873
     70 H34        -4.5302    1.6024   11.9337 H         1 <0>         0.0801
     71 H35        -6.2449    1.9748   11.5496 H         1 <0>         0.0936
     72 H36        -6.0395    0.2862   13.3941 H         1 <0>         0.1111
     73 H37        -6.8695   -0.3887   11.9511 H         1 <0>         0.0877
     74 H38        -5.1765   -1.9863   12.8244 H         1 <0>         0.1287
     75 H39        -3.8994   -0.7352   12.6503 H         1 <0>         0.1253
     76 H40        -5.6492   -1.7945   10.4440 H         1 <0>         0.4382
@<TRIPOS>BOND
     1    1    6 ar
     2    1    2 ar
     3    1   37 1
     4    2    3 ar
     5    2   38 1
     6    3    4 ar
     7    3   39 1
     8    4    5 ar
     9    4    7 1
    10    5    6 ar
    11    5   40 1
    12    6   41 1
    13    7    8 1
    14    7   42 1
    15    7   43 1
    16    8   13 1
    17    8    9 1
    18    9   10 1
    19    9   44 1
    20    9   45 1
    21   10   11 1
    22   10   46 1
    23   10   47 1
    24   11   12 1
    25   11   14 1
    26   12   13 1
    27   12   48 1
    28   12   49 1
    29   13   50 1
    30   13   51 1
    31   14   18 1
    32   14   15 2
    33   15   16 1
    34   16   17 2
    35   17   18 1
    36   17   19 1
    37   19   23 1
    38   19   20 1
    39   20   21 2
    40   20   52 1
    41   21   22 1
    42   21   53 1
    43   22   23 2
    44   22   54 1
    45   23   24 1
    46   24   25 1
    47   24   55 1
    48   24   56 1
    49   25   30 1
    50   25   26 1
    51   26   27 1
    52   26   57 1
    53   26   58 1
    54   27   28 1
    55   27   59 1
    56   27   60 1
    57   28   29 1
    58   28   31 1
    59   28   61 1
    60   29   30 1
    61   29   62 1
    62   29   63 1
    63   30   64 1
    64   30   65 1
    65   31   36 1
    66   31   32 1
    67   31   76 1
    68   32   33 1
    69   32   66 1
    70   32   67 1
    71   33   34 1
    72   33   68 1
    73   33   69 1
    74   34   35 1
    75   34   70 1
    76   34   71 1
    77   35   36 1
    78   35   72 1
    79   35   73 1
    80   36   74 1
    81   36   75 1
@<TRIPOS>MOLECULE
ZINC34830600
   67    71     0     0     0
SMALL
USER_CHARGES

@<TRIPOS>ATOM
      1 C1          0.2361    1.1776    0.4391 C.ar      1 <0>        -0.0887
      2 C2          1.4479    1.8072    0.2251 C.ar      1 <0>        -0.1049
      3 C3          2.6206    1.0757    0.2488 C.ar      1 <0>        -0.0861
      4 C4          2.5814   -0.2854    0.4871 C.ar      1 <0>        -0.1375
      5 C5          1.3697   -0.9149    0.7020 C.ar      1 <0>        -0.1114
      6 C6          0.1969   -0.1836    0.6769 C.ar      1 <0>        -0.1048
      7 C7          3.8598   -1.0831    0.5120 C.3       1 <0>         0.1551
      8 H1          4.6760   -0.4778    0.1177 H         1 <0>         0.1489
      9 C8          4.1764   -1.4974    1.9456 C.2       1 <0>        -0.1393
     10 C9          4.0089   -0.6680    3.0516 C.2       1 <0>        -0.1432
     11 C10         4.3138   -1.1215    4.2902 C.2       1 <0>        -0.1519
     12 S1          4.8678   -2.7859    3.9477 S.3       1 <0>         0.1443
     13 C11         4.6538   -2.7501    2.1914 C.2       1 <0>        -0.1951
     14 C12         4.9208   -3.8125    1.1756 C.3       1 <0>        -0.0582
     15 C13         4.8939   -3.1457   -0.2107 C.3       1 <0>        -0.0123
     16 N1          3.7024   -2.2908   -0.3072 N.4       1 <0>        -0.3822
     17 C14         3.4958   -1.9008   -1.7084 C.3       1 <0>        -0.0003
     18 C15         3.1534   -3.1402   -2.5376 C.3       1 <0>        -0.1802
     19 C16         2.8034   -2.7235   -3.9429 C.2       1 <0>         0.5245
     20 O1          2.7963   -1.5484   -4.2429 O.2       1 <0>        -0.5201
     21 N2          2.4984   -3.6566   -4.8663 N.am      1 <0>        -0.5916
     22 C17         2.2731   -3.2575   -6.2758 C.3       1 <0>         0.1188
     23 C18         3.4544   -3.5768   -7.0928 C.3       1 <0>        -0.1751
     24 C19         3.7977   -5.0751   -7.0414 C.3       1 <0>         0.1120
     25 N3          4.4719   -5.3322   -5.8013 N.pl3     1 <0>        -0.9886
     26 C20         3.7446   -5.7860   -4.5844 C.3       1 <0>         0.1001
     27 C21         2.3978   -5.0375   -4.4847 C.3       1 <0>         0.0877
     28 S2          6.1120   -5.1177   -5.7214 S.o2      1 <0>         2.6798
     29 O2          6.5848   -5.9803   -4.6959 O.2       1 <0>        -0.9515
     30 O3          6.5958   -5.1840   -7.0558 O.2       1 <0>        -0.9432
     31 C22         6.3954   -3.4703   -5.1642 C.ar      1 <0>        -0.6728
     32 C23         6.5369   -2.4454   -6.0809 C.ar      1 <0>        -0.0102
     33 C24         6.7592   -1.1529   -5.6439 C.ar      1 <0>        -0.1256
     34 C25         6.8396   -0.8854   -4.2900 C.ar      1 <0>        -0.0545
     35 C26         6.6972   -1.9102   -3.3733 C.ar      1 <0>        -0.1516
     36 C27         6.4706   -3.2019   -3.8103 C.ar      1 <0>        -0.0357
     37 H2         -0.6797    1.7499    0.4250 H         1 <0>         0.1358
     38 H3          1.4785    2.8706    0.0389 H         1 <0>         0.1373
     39 H4          3.5673    1.5675    0.0808 H         1 <0>         0.1331
     40 H5          1.3390   -1.9784    0.8878 H         1 <0>         0.1176
     41 H6         -0.7499   -0.6755    0.8445 H         1 <0>         0.1349
     42 H7          3.6359    0.3371    2.9213 H         1 <0>         0.1415
     43 H8          4.2412   -0.6104    5.2388 H         1 <0>         0.1988
     44 H9          5.9001   -4.2568    1.3536 H         1 <0>         0.1323
     45 H10         4.1494   -4.5805    1.2318 H         1 <0>         0.1131
     46 H11         5.7892   -2.5378   -0.3408 H         1 <0>         0.1381
     47 H12         4.8557   -3.9128   -0.9841 H         1 <0>         0.1414
     48 H13         2.6759   -1.1851   -1.7692 H         1 <0>         0.1480
     49 H14         4.4062   -1.4441   -2.0964 H         1 <0>         0.1395
     50 H15         4.0126   -3.8106   -2.5607 H         1 <0>         0.1123
     51 H16         2.3035   -3.6543   -2.0887 H         1 <0>         0.1203
     52 H17         1.4080   -3.7920   -6.6681 H         1 <0>         0.0847
     53 H18         2.0824   -2.1853   -6.3210 H         1 <0>         0.0980
     54 H19         3.2582   -3.2929   -8.1268 H         1 <0>         0.0984
     55 H20         4.3060   -3.0047   -6.7246 H         1 <0>         0.0696
     56 H21         2.8825   -5.6649   -7.0925 H         1 <0>         0.0953
     57 H22         4.4500   -5.3327   -7.8758 H         1 <0>         0.1026
     58 H23         3.5622   -6.8587   -4.6488 H         1 <0>         0.0982
     59 H24         4.3456   -5.5717   -3.7007 H         1 <0>         0.0801
     60 H25         2.0436   -5.0941   -3.4554 H         1 <0>         0.0886
     61 H26         1.6730   -5.5305   -5.1326 H         1 <0>         0.0982
     62 H27         6.4740   -2.6544   -7.1387 H         1 <0>         0.1426
     63 H28         6.8704   -0.3523   -6.3601 H         1 <0>         0.1374
     64 H29         7.0140    0.1243   -3.9486 H         1 <0>         0.1328
     65 H30         6.7604   -1.7012   -2.3156 H         1 <0>         0.1234
     66 H31         6.3556   -4.0019   -3.0940 H         1 <0>         0.1309
     67 H32         2.8979   -2.8078    0.0148 H         1 <0>         0.4203
@<TRIPOS>BOND
     1    1    6 ar
     2    1    2 ar
     3    1   37 1
     4    2    3 ar
     5    2   38 1
     6    3    4 ar
     7    3   39 1
     8    4    5 ar
     9    4    7 1
    10    5    6 ar
    11    5   40 1
    12    6   41 1
    13    7    8 1
    14    7   16 1
    15    7    9 1
    16    9   13 2
    17    9   10 1
    18   10   11 2
    19   10   42 1
    20   11   12 1
    21   11   43 1
    22   12   13 1
    23   13   14 1
    24   14   15 1
    25   14   44 1
    26   14   45 1
    27   15   16 1
    28   15   46 1
    29   15   47 1
    30   16   17 1
    31   16   67 1
    32   17   18 1
    33   17   48 1
    34   17   49 1
    35   18   19 1
    36   18   50 1
    37   18   51 1
    38   19   20 2
    39   19   21 am
    40   21   27 1
    41   21   22 1
    42   22   23 1
    43   22   52 1
    44   22   53 1
    45   23   24 1
    46   23   54 1
    47   23   55 1
    48   24   25 1
    49   24   56 1
    50   24   57 1
    51   25   26 1
    52   25   28 1
    53   26   27 1
    54   26   58 1
    55   26   59 1
    56   27   60 1
    57   27   61 1
    58   28   29 2
    59   28   30 2
    60   28   31 1
    61   31   36 ar
    62   31   32 ar
    63   32   33 ar
    64   32   62 1
    65   33   34 ar
    66   33   63 1
    67   34   35 ar
    68   34   64 1
    69   35   36 ar
    70   35   65 1
    71   36   66 1
@<TRIPOS>MOLECULE
ZINC36644861
   61    64     0     0     0
SMALL
USER_CHARGES

@<TRIPOS>ATOM
      1 C1          0.2267    1.4604    0.0206 C.3       1 <0>        -0.0477
      2 N1          0.2528   -0.0060   -0.0633 N.4       1 <0>        -0.3866
      3 C2          1.0561   -0.5455    1.0419 C.3       1 <0>        -0.0551
      4 C3         -1.1180   -0.5262    0.0282 C.3       1 <0>        -0.0070
      5 C4         -1.1036   -2.0414   -0.1839 C.3       1 <0>        -0.1751
      6 C5         -2.5313   -2.5832   -0.0886 C.3       1 <0>         0.1097
      7 N2         -2.5272   -4.0217   -0.3657 N.am      1 <0>        -0.5052
      8 C6         -2.2637   -4.9232    0.6539 C.2       1 <0>         0.3391
      9 N3         -2.2108   -6.2331    0.6011 N.2       1 <0>        -0.5023
     10 C7         -1.9404   -6.9933    1.6852 C.ar      1 <0>         0.0790
     11 C8         -1.8546   -8.4069    1.7639 C.ar      1 <0>         0.1994
     12 C9         -1.5686   -9.0263    2.9571 C.ar      1 <0>        -0.1934
     13 C10        -1.3550   -8.2973    4.1184 C.ar      1 <0>        -0.0306
     14 C11        -1.4310   -6.9169    4.0758 C.ar      1 <0>        -0.0258
     15 C12        -1.7165   -6.2876    2.8872 C.ar      1 <0>        -0.1085
     16 S1         -1.9018   -4.5969    2.3734 S.3       1 <0>         0.0581
     17 Cl1        -1.1682   -5.9837    5.5159 Cl        1 <0>        -0.0450
     18 O1         -2.0579   -9.1566    0.6480 O.3       1 <0>        -0.2949
     19 C13        -1.9578  -10.5748    0.7923 C.3       1 <0>         0.0168
     20 C14        -2.7796   -4.4687   -1.6119 C.2       1 <0>         0.5386
     21 O2         -2.9367   -3.6792   -2.5190 O.2       1 <0>        -0.4845
     22 C15        -2.8665   -5.9494   -1.8781 C.3       1 <0>        -0.1157
     23 H1         -2.0009   -6.4691   -1.4673 H         1 <0>         0.1557
     24 C16        -4.1822   -6.5364   -1.3166 C.3       1 <0>        -0.1167
     25 C17        -5.1401   -6.4856   -2.4863 C.2       1 <0>         0.5116
     26 O3         -6.3457   -6.5890   -2.4020 O.2       1 <0>        -0.5000
     27 N4         -4.4609   -6.3090   -3.6328 N.am      1 <0>        -0.5537
     28 C18        -3.0146   -6.2316   -3.3897 C.3       1 <0>         0.1085
     29 C19        -5.0558   -6.2113   -4.8966 C.ar      1 <0>         0.1554
     30 C20        -6.4389   -6.1724   -5.0128 C.ar      1 <0>        -0.1269
     31 C21        -7.0238   -6.0760   -6.2602 C.ar      1 <0>        -0.1222
     32 C22        -6.2318   -6.0187   -7.3947 C.ar      1 <0>         0.0767
     33 C23        -4.8523   -6.0573   -7.2810 C.ar      1 <0>        -0.1246
     34 C24        -4.2634   -6.1474   -6.0350 C.ar      1 <0>        -0.1272
     35 F1         -6.8058   -5.9253   -8.6141 F         1 <0>        -0.1375
     36 H2          1.2438    1.8464   -0.0473 H         1 <0>         0.1262
     37 H3         -0.3694    1.8607   -0.7995 H         1 <0>         0.1251
     38 H4         -0.2138    1.7621    0.9709 H         1 <0>         0.1236
     39 H5          0.6156   -0.2438    1.9922 H         1 <0>         0.1252
     40 H6          1.0755   -1.6335    0.9797 H         1 <0>         0.1231
     41 H7          2.0732   -0.1595    0.9741 H         1 <0>         0.1269
     42 H8         -1.5271   -0.3010    1.0131 H         1 <0>         0.1361
     43 H9         -1.7361   -0.0580   -0.7378 H         1 <0>         0.1385
     44 H10        -0.6945   -2.2666   -1.1688 H         1 <0>         0.1006
     45 H11        -0.4854   -2.5096    0.5821 H         1 <0>         0.0953
     46 H12        -2.9204   -2.4075    0.9143 H         1 <0>         0.1022
     47 H13        -3.1623   -2.0746   -0.8174 H         1 <0>         0.1220
     48 H14        -1.5090  -10.1041    2.9917 H         1 <0>         0.1559
     49 H15        -1.1321   -8.8028    5.0464 H         1 <0>         0.1582
     50 H16        -0.9587  -10.8348    1.1419 H         1 <0>         0.0645
     51 H17        -2.6969  -10.9195    1.5154 H         1 <0>         0.0652
     52 H18        -2.1414  -11.0518   -0.1705 H         1 <0>         0.1109
     53 H19        -4.0323   -7.5656   -0.9906 H         1 <0>         0.1307
     54 H20        -4.5522   -5.9247   -0.4937 H         1 <0>         0.0994
     55 H21        -2.5770   -5.4191   -3.9697 H         1 <0>         0.1008
     56 H22        -2.5377   -7.1778   -3.6453 H         1 <0>         0.0980
     57 H23        -7.0570   -6.2178   -4.1283 H         1 <0>         0.1626
     58 H24        -8.0995   -6.0457   -6.3510 H         1 <0>         0.1418
     59 H25        -4.2363   -6.0128   -8.1671 H         1 <0>         0.1415
     60 H26        -3.1873   -6.1730   -5.9464 H         1 <0>         0.1345
     61 H27         0.6605   -0.2853   -0.9430 H         1 <0>         0.4283
@<TRIPOS>BOND
     1    1    2 1
     2    1   36 1
     3    1   37 1
     4    1   38 1
     5    2    3 1
     6    2    4 1
     7    2   61 1
     8    3   39 1
     9    3   40 1
    10    3   41 1
    11    4    5 1
    12    4   42 1
    13    4   43 1
    14    5    6 1
    15    5   44 1
    16    5   45 1
    17    6    7 1
    18    6   46 1
    19    6   47 1
    20    7    8 1
    21    7   20 am
    22    8   16 1
    23    8    9 2
    24    9   10 1
    25   10   15 ar
    26   10   11 ar
    27   11   12 ar
    28   11   18 1
    29   12   13 ar
    30   12   48 1
    31   13   14 ar
    32   13   49 1
    33   14   15 ar
    34   14   17 1
    35   15   16 1
    36   18   19 1
    37   19   50 1
    38   19   51 1
    39   19   52 1
    40   20   21 2
    41   20   22 1
    42   22   23 1
    43   22   28 1
    44   22   24 1
    45   24   25 1
    46   24   53 1
    47   24   54 1
    48   25   26 2
    49   25   27 am
    50   27   28 1
    51   27   29 1
    52   28   55 1
    53   28   56 1
    54   29   34 ar
    55   29   30 ar
    56   30   31 ar
    57   30   57 1
    58   31   32 ar
    59   31   58 1
    60   32   33 ar
    61   32   35 1
    62   33   34 ar
    63   33   59 1
    64   34   60 1
@<TRIPOS>MOLECULE
ZINC44923815
   68    74     0     0     0
SMALL
USER_CHARGES

@<TRIPOS>ATOM
      1 C1         -0.4800   -0.6673   -1.8535 C.3       1 <0>        -0.1230
      2 C2         -0.1412   -0.9550   -0.4135 C.2       1 <0>         0.1366
      3 C3         -1.0146   -0.9469    0.6249 C.2       1 <0>        -0.2459
      4 C4         -0.2488   -1.2817    1.8313 C.2       1 <0>         0.1854
      5 N1          0.9941   -1.4641    1.4576 N.2       1 <0>        -0.2780
      6 O1          1.0736   -1.2683    0.0595 O.3       1 <0>        -0.0584
      7 C5         -0.7805   -1.3922    3.2117 C.ar      1 <0>        -0.0520
      8 C6         -1.7806   -0.5249    3.6475 C.ar      1 <0>        -0.0894
      9 C7         -2.2719   -0.6325    4.9327 C.ar      1 <0>        -0.1178
     10 C8         -1.7735   -1.5989    5.7877 C.ar      1 <0>        -0.0887
     11 C9         -0.7806   -2.4621    5.3607 C.ar      1 <0>        -0.1112
     12 C10        -0.2859   -2.3673    4.0758 C.ar      1 <0>        -0.0746
     13 C11        -2.4679   -0.6542    0.5542 C.2       1 <0>         0.1470
     14 C12        -3.3809   -1.6236    0.8555 C.2       1 <0>        -0.1497
     15 S1         -4.9092   -0.7294    0.6062 S.3       1 <0>         0.2436
     16 C13        -4.1796    0.8313    0.1301 C.cat     1 <0>         0.3724
     17 N2         -4.8009    2.0199   -0.2178 N.pl3     1 <0>        -0.6208
     18 C14        -6.2633    2.1068   -0.2263 C.3       1 <0>         0.0839
     19 C15        -6.6880    3.5165   -0.6427 C.3       1 <0>         0.0664
     20 H1         -6.2062    4.2528    0.0005 H         1 <0>         0.0975
     21 C16        -8.2222    3.6536   -0.5381 C.3       1 <0>        -0.1467
     22 C17        -8.5634    4.5037   -1.7923 C.3       1 <0>        -0.1567
     23 C18        -7.5026    3.9859   -2.7960 C.3       1 <0>         0.0479
     24 O2         -6.3228    3.7506   -2.0078 O.3       1 <0>        -0.3763
     25 N3         -2.8905    0.5520    0.2035 N.pl3     1 <0>        -0.4261
     26 C19        -1.9100    1.5933   -0.1137 C.3       1 <0>         0.0776
     27 H2         -0.9082    1.1639   -0.1069 H         1 <0>         0.1369
     28 C20        -1.9944    2.7100    0.9308 C.3       1 <0>        -0.1247
     29 C21        -0.8128    3.6688    0.7482 C.3       1 <0>        -0.0562
     30 C22        -0.7387    4.0704   -0.7063 C.2       1 <0>         0.0806
     31 C23        -1.3618    3.4032   -1.7014 C.2       1 <0>        -0.1841
     32 C24        -1.0518    4.0932   -2.9364 C.ar      1 <0>        -0.0931
     33 C25        -1.4126    3.8641   -4.2677 C.ar      1 <0>        -0.0735
     34 C26        -0.9248    4.7431   -5.2030 C.ar      1 <0>        -0.1369
     35 C27        -0.1120    5.8101   -4.8569 C.ar      1 <0>        -0.0926
     36 C28         0.2610    6.0601   -3.5478 C.ar      1 <0>        -0.1247
     37 C29        -0.2197    5.1844   -2.5764 C.ar      1 <0>         0.1013
     38 N4         -0.0519    5.1379   -1.2225 N.pl3     1 <0>        -0.5761
     39 H3          0.4745    5.7662   -0.7037 H         1 <0>         0.4210
     40 C30        -2.2092    2.1722   -1.5015 C.3       1 <0>        -0.0621
     41 H4          0.4352   -0.6478   -2.4452 H         1 <0>         0.1073
     42 H5         -1.1418   -1.4456   -2.2335 H         1 <0>         0.1119
     43 H6         -0.9786    0.2995   -1.9233 H         1 <0>         0.1023
     44 H7         -2.1702    0.2303    2.9808 H         1 <0>         0.1113
     45 H8         -3.0466    0.0393    5.2716 H         1 <0>         0.1321
     46 H9         -2.1609   -1.6796    6.7926 H         1 <0>         0.1347
     47 H10        -0.3949   -3.2146    6.0326 H         1 <0>         0.1376
     48 H11         0.4862   -3.0447    3.7420 H         1 <0>         0.1339
     49 H12        -3.2236   -2.6478    1.1599 H         1 <0>         0.2354
     50 H13        -6.6663    1.3821   -0.9337 H         1 <0>         0.1040
     51 H14        -6.6459    1.8920    0.7715 H         1 <0>         0.1089
     52 H15        -8.7033    2.6769   -0.5889 H         1 <0>         0.0875
     53 H16        -8.5033    4.1788    0.3747 H         1 <0>         0.0957
     54 H17        -9.5732    4.2951   -2.1454 H         1 <0>         0.0943
     55 H18        -8.4304    5.5673   -1.5940 H         1 <0>         0.0855
     56 H19        -7.8405    3.0586   -3.2587 H         1 <0>         0.0681
     57 H20        -7.3034    4.7393   -3.5582 H         1 <0>         0.0954
     58 H21        -2.9289    3.2565    0.8040 H         1 <0>         0.0787
     59 H22        -1.9595    2.2763    1.9302 H         1 <0>         0.0941
     60 H23        -0.9617    4.5548    1.3654 H         1 <0>         0.1006
     61 H24         0.1118    3.1693    1.0374 H         1 <0>         0.0951
     62 H25        -2.0451    3.0345   -4.5473 H         1 <0>         0.1276
     63 H26        -1.1828    4.5977   -6.2416 H         1 <0>         0.1232
     64 H27         0.2430    6.4693   -5.6353 H         1 <0>         0.1271
     65 H28         0.8958    6.8952   -3.2909 H         1 <0>         0.1324
     66 H29        -1.9684    1.4334   -2.2659 H         1 <0>         0.0994
     67 H30        -3.2639    2.4398   -1.5668 H         1 <0>         0.0827
     68 H31        -4.2676    2.7944   -0.4558 H         1 <0>         0.4345
@<TRIPOS>BOND
     1    1    2 1
     2    1   41 1
     3    1   42 1
     4    1   43 1
     5    2    6 1
     6    2    3 2
     7    3    4 1
     8    3   13 1
     9    4    5 2
    10    4    7 1
    11    5    6 1
    12    7   12 ar
    13    7    8 ar
    14    8    9 ar
    15    8   44 1
    16    9   10 ar
    17    9   45 1
    18   10   11 ar
    19   10   46 1
    20   11   12 ar
    21   11   47 1
    22   12   48 1
    23   13   25 1
    24   13   14 2
    25   14   15 1
    26   14   49 1
    27   15   16 1
    28   16   17 1
    29   16   25 2
    30   17   18 1
    31   17   68 1
    32   18   19 1
    33   18   50 1
    34   18   51 1
    35   19   20 1
    36   19   24 1
    37   19   21 1
    38   21   22 1
    39   21   52 1
    40   21   53 1
    41   22   23 1
    42   22   54 1
    43   22   55 1
    44   23   24 1
    45   23   56 1
    46   23   57 1
    47   25   26 1
    48   26   27 1
    49   26   40 1
    50   26   28 1
    51   28   29 1
    52   28   58 1
    53   28   59 1
    54   29   30 1
    55   29   60 1
    56   29   61 1
    57   30   38 1
    58   30   31 2
    59   31   32 1
    60   31   40 1
    61   32   37 ar
    62   32   33 ar
    63   33   34 ar
    64   33   62 1
    65   34   35 ar
    66   34   63 1
    67   35   36 ar
    68   35   64 1
    69   36   37 ar
    70   36   65 1
    71   37   38 1
    72   38   39 1
    73   40   66 1
    74   40   67 1
@<TRIPOS>MOLECULE
ZINC05838863
   68    71     0     0     0
SMALL
USER_CHARGES
3,5-dimethyl-4-(3-BLAHyloxypropyl)isoxazole
@<TRIPOS>ATOM
      1 C1         -0.0127    1.0858    0.0080 C.3       1 <0>        -0.0778
      2 C2         -0.7181    1.5718    1.2479 C.2       1 <0>         0.0233
      3 C3         -0.1289    1.8553    2.5014 C.2       1 <0>        -0.2000
      4 C4         -1.1706    2.2531    3.2703 C.2       1 <0>        -0.0279
      5 O1         -2.2608    2.1930    2.4929 O.3       1 <0>         0.0976
      6 N1         -1.9897    1.8192    1.3753 N.2       1 <0>        -0.3659
      7 C5         -1.1149    2.6788    4.7149 C.3       1 <0>        -0.0758
      8 C6          1.3224    1.7418    2.8915 C.3       1 <0>        -0.0373
      9 C7          2.0306    3.0691    2.6126 C.3       1 <0>        -0.1120
     10 C8          3.5040    2.9539    3.0087 C.3       1 <0>         0.0631
     11 O2          4.1655    4.1935    2.7483 O.3       1 <0>        -0.3767
     12 C9          5.5543    4.1931    3.0849 C.3       1 <0>         0.0881
     13 C10         5.7276    4.6453    4.5362 C.3       1 <0>         0.0490
     14 O3          5.7525    3.4987    5.3909 O.3       1 <0>        -0.3184
     15 C11         5.5140    3.7147    6.7125 C.ar      1 <0>         0.0824
     16 C12         4.2528    4.1015    7.1360 C.ar      1 <0>        -0.1275
     17 C13         4.0134    4.3260    8.4789 C.ar      1 <0>        -0.1242
     18 C14         5.0298    4.1637    9.4019 C.ar      1 <0>        -0.0999
     19 C15         6.2899    3.7757    8.9863 C.ar      1 <0>        -0.1676
     20 C16         6.5365    3.5493    7.6417 C.ar      1 <0>         0.1000
     21 O4          7.7752    3.1669    7.2308 O.3       1 <0>        -0.3004
     22 C17         8.8883    3.8728    7.7828 C.3       1 <0>         0.0616
     23 C18         9.2472    5.0503    6.8742 C.3       1 <0>         0.0371
     24 O5          9.9717    4.5720    5.7392 O.3       1 <0>        -0.3630
     25 C19        10.5094    5.6068    4.9134 C.3       1 <0>         0.0427
     26 C20        11.1953    4.9831    3.6962 C.3       1 <0>         0.0667
     27 O6         10.2371    4.2450    2.9353 O.3       1 <0>        -0.3037
     28 C21         9.8833    4.7562    1.7257 C.ar      1 <0>         0.0732
     29 C22        10.8068    4.8012    0.6937 C.ar      1 <0>        -0.1216
     30 C23        10.4453    5.3219   -0.5349 C.ar      1 <0>        -0.1312
     31 C24         9.1636    5.7994   -0.7369 C.ar      1 <0>        -0.0936
     32 C25         8.2375    5.7573    0.2886 C.ar      1 <0>        -0.1817
     33 C26         8.5931    5.2360    1.5222 C.ar      1 <0>         0.1087
     34 O7          7.6830    5.1942    2.5320 O.3       1 <0>        -0.2969
     35 C27         6.3039    5.1538    2.1594 C.3       1 <0>         0.0636
     36 H1          0.0021   -0.0041    0.0020 H         1 <0>         0.0808
     37 H2          1.0099    1.4631    0.0003 H         1 <0>         0.0813
     38 H3         -0.5399    1.4469   -0.8751 H         1 <0>         0.0770
     39 H4         -0.9459    3.7542    4.7705 H         1 <0>         0.0887
     40 H5         -2.0583    2.4335    5.2026 H         1 <0>         0.0844
     41 H6         -0.3001    2.1566    5.2164 H         1 <0>         0.0914
     42 H7          1.3959    1.5069    3.9533 H         1 <0>         0.0800
     43 H8          1.7939    0.9493    2.3105 H         1 <0>         0.0803
     44 H9          1.9571    3.3040    1.5508 H         1 <0>         0.0726
     45 H10         1.5591    3.8616    3.1937 H         1 <0>         0.0725
     46 H11         3.5775    2.7189    4.0705 H         1 <0>         0.0599
     47 H12         3.9755    2.1614    2.4277 H         1 <0>         0.0537
     48 H13         5.9566    3.1869    2.9671 H         1 <0>         0.0863
     49 H14         6.6639    5.1944    4.6363 H         1 <0>         0.0749
     50 H15         4.8958    5.2912    4.8172 H         1 <0>         0.0649
     51 H16         3.4568    4.2276    6.4171 H         1 <0>         0.1317
     52 H17         3.0302    4.6285    8.8077 H         1 <0>         0.1295
     53 H18         4.8388    4.3402   10.4501 H         1 <0>         0.1294
     54 H19         7.0820    3.6493    9.7095 H         1 <0>         0.1325
     55 H20         9.7426    3.2003    7.8606 H         1 <0>         0.1094
     56 H21         8.6274    4.2448    8.7736 H         1 <0>         0.0783
     57 H22         9.8634    5.7603    7.4258 H         1 <0>         0.0599
     58 H23         8.3342    5.5437    6.5410 H         1 <0>         0.0512
     59 H24        11.2363    6.1855    5.4833 H         1 <0>         0.0602
     60 H25         9.7040    6.2616    4.5808 H         1 <0>         0.0533
     61 H26        11.9882    4.3135    4.0295 H         1 <0>         0.0931
     62 H27        11.6222    5.7714    3.0763 H         1 <0>         0.0754
     63 H28        11.8087    4.4293    0.8490 H         1 <0>         0.1353
     64 H29        11.1659    5.3562   -1.3387 H         1 <0>         0.1300
     65 H30         8.8853    6.2064   -1.6978 H         1 <0>         0.1298
     66 H31         7.2368    6.1305    0.1283 H         1 <0>         0.1338
     67 H32         6.2157    4.8090    1.1292 H         1 <0>         0.0817
     68 H33         5.8744    6.1518    2.2467 H         1 <0>         0.0829
@<TRIPOS>BOND
     1    1    2 1
     2    1   36 1
     3    1   37 1
     4    1   38 1
     5    2    6 2
     6    2    3 1
     7    3    4 2
     8    3    8 1
     9    4    5 1
    10    4    7 1
    11    5    6 1
    12    7   39 1
    13    7   40 1
    14    7   41 1
    15    8    9 1
    16    8   42 1
    17    8   43 1
    18    9   10 1
    19    9   44 1
    20    9   45 1
    21   10   11 1
    22   10   46 1
    23   10   47 1
    24   11   12 1
    25   12   35 1
    26   12   13 1
    27   12   48 1
    28   13   14 1
    29   13   49 1
    30   13   50 1
    31   14   15 1
    32   15   20 ar
    33   15   16 ar
    34   16   17 ar
    35   16   51 1
    36   17   18 ar
    37   17   52 1
    38   18   19 ar
    39   18   53 1
    40   19   20 ar
    41   19   54 1
    42   20   21 1
    43   21   22 1
    44   22   23 1
    45   22   55 1
    46   22   56 1
    47   23   24 1
    48   23   57 1
    49   23   58 1
    50   24   25 1
    51   25   26 1
    52   25   59 1
    53   25   60 1
    54   26   27 1
    55   26   61 1
    56   26   62 1
    57   27   28 1
    58   28   33 ar
    59   28   29 ar
    60   29   30 ar
    61   29   63 1
    62   30   31 ar
    63   30   64 1
    64   31   32 ar
    65   31   65 1
    66   32   33 ar
    67   32   66 1
    68   33   34 1
    69   34   35 1
    70   35   67 1
    71   35   68 1
@<TRIPOS>MOLECULE
ZINC09532253
   55    59     0     0     0
SMALL
USER_CHARGES
2-[2-[[5-(4-chlorophenyl)-4-(tetrahydrofuran-2-ylmethyl)-1,2,4-triazol-3-yl]sulfanylmethyl]-4-oxo-quinazolin-3-yl]acetonitrile
@<TRIPOS>ATOM
      1 C1         -2.2618    5.6684   -0.3822 C.ar      1 <0>        -0.1317
      2 C2         -1.0252    6.2998   -0.3473 C.ar      1 <0>        -0.0708
      3 C3          0.1396    5.5675   -0.3004 C.ar      1 <0>        -0.1028
      4 C4          0.0793    4.1725   -0.2872 C.ar      1 <0>         0.1524
      5 C5         -1.1799    3.5337   -0.3224 C.ar      1 <0>        -0.1916
      6 C6         -2.3470    4.2934   -0.3706 C.ar      1 <0>        -0.0398
      7 C7         -1.2086    2.0635   -0.3131 C.2       1 <0>         0.5553
      8 O1         -2.2602    1.4513   -0.3467 O.2       1 <0>        -0.4933
      9 N1         -0.0203    1.4176   -0.2612 N.am      1 <0>        -0.5388
     10 C8          1.1452    2.1150   -0.2302 C.2       1 <0>         0.4130
     11 N2          1.2018    3.4120   -0.2419 N.2       1 <0>        -0.4989
     12 C9          2.4387    1.3434   -0.1790 C.3       1 <0>        -0.1002
     13 S1          3.8303    2.5003   -0.1455 S.3       1 <0>         0.1384
     14 C10         5.1736    1.3614   -0.0887 C.2       1 <0>         0.1542
     15 N3          5.0840    0.0503   -0.0717 N.2       1 <0>        -0.2977
     16 N4          6.2576   -0.4718   -0.0330 N.2       1 <0>        -0.2589
     17 C11         7.1682    0.4735   -0.0131 C.2       1 <0>         0.2171
     18 N5          6.5019    1.6767   -0.0482 N.pl3     1 <0>        -0.4498
     19 C12         7.0938    3.0168   -0.0427 C.3       1 <0>         0.0949
     20 C13         7.1975    3.5227    1.3976 C.3       1 <0>         0.0571
     21 H1          7.7593    2.8148    2.0070 H         1 <0>         0.0811
     22 C14         7.8715    4.9175    1.4305 C.3       1 <0>        -0.1492
     23 C15         7.3071    5.4863    2.7609 C.3       1 <0>        -0.1542
     24 C16         5.8888    4.8778    2.8018 C.3       1 <0>         0.0500
     25 O2          5.8872    3.7262    1.9500 O.3       1 <0>        -0.3605
     26 C17         8.6331    0.2815    0.0382 C.ar      1 <0>        -0.0085
     27 C18         9.4618    1.3221    0.4607 C.ar      1 <0>        -0.1099
     28 C19        10.8275    1.1351    0.5119 C.ar      1 <0>        -0.1042
     29 C20        11.3775   -0.0784    0.1343 C.ar      1 <0>        -0.0234
     30 C21        10.5609   -1.1126   -0.2911 C.ar      1 <0>        -0.1036
     31 C22         9.1934   -0.9394   -0.3412 C.ar      1 <0>        -0.0617
     32 Cl1        13.0977   -0.3041    0.1951 Cl        1 <0>        -0.0593
     33 C23         0.0095   -0.0470   -0.2443 C.3       1 <0>         0.1902
     34 C24        -0.0264   -0.5225    1.1483 C.1       1 <0>         0.1762
     35 N6         -0.0541   -0.8895    2.2230 N.1       1 <0>        -0.3818
     36 H2         -3.1643    6.2604   -0.4191 H         1 <0>         0.1368
     37 H3         -0.9769    7.3786   -0.3574 H         1 <0>         0.1377
     38 H4          1.0954    6.0696   -0.2735 H         1 <0>         0.1431
     39 H5         -3.3113    3.8079   -0.3986 H         1 <0>         0.1408
     40 H6          2.4580    0.7257    0.7188 H         1 <0>         0.1300
     41 H7          2.5169    0.7064   -1.0600 H         1 <0>         0.1359
     42 H8          8.0888    2.9764   -0.4860 H         1 <0>         0.1194
     43 H9          6.4655    3.6940   -0.6213 H         1 <0>         0.1117
     44 H10         8.9571    4.8283    1.4706 H         1 <0>         0.0899
     45 H11         7.5602    5.5244    0.5803 H         1 <0>         0.0880
     46 H12         7.2613    6.5749    2.7288 H         1 <0>         0.0877
     47 H13         7.8985    5.1495    3.6123 H         1 <0>         0.0790
     48 H14         5.1633    5.6063    2.4400 H         1 <0>         0.0757
     49 H15         5.6420    4.5835    3.8219 H         1 <0>         0.0704
     50 H16         9.0343    2.2704    0.7511 H         1 <0>         0.1363
     51 H17        11.4693    1.9380    0.8432 H         1 <0>         0.1415
     52 H18        10.9956   -2.0569   -0.5840 H         1 <0>         0.1442
     53 H19         8.5575   -1.7469   -0.6728 H         1 <0>         0.1477
     54 H20        -0.8554   -0.4342   -0.7829 H         1 <0>         0.1499
     55 H21         0.9232   -0.3973   -0.7245 H         1 <0>         0.1450
@<TRIPOS>BOND
     1    1    6 ar
     2    1    2 ar
     3    1   36 1
     4    2    3 ar
     5    2   37 1
     6    3    4 ar
     7    3   38 1
     8    4   11 1
     9    4    5 ar
    10    5    6 ar
    11    5    7 1
    12    6   39 1
    13    7    8 2
    14    7    9 am
    15    9   10 1
    16    9   33 1
    17   10   11 2
    18   10   12 1
    19   12   13 1
    20   12   40 1
    21   12   41 1
    22   13   14 1
    23   14   18 1
    24   14   15 2
    25   15   16 1
    26   16   17 2
    27   17   18 1
    28   17   26 1
    29   18   19 1
    30   19   20 1
    31   19   42 1
    32   19   43 1
    33   20   21 1
    34   20   25 1
    35   20   22 1
    36   22   23 1
    37   22   44 1
    38   22   45 1
    39   23   24 1
    40   23   46 1
    41   23   47 1
    42   24   25 1
    43   24   48 1
    44   24   49 1
    45   26   31 ar
    46   26   27 ar
    47   27   28 ar
    48   27   50 1
    49   28   29 ar
    50   28   51 1
    51   29   30 ar
    52   29   32 1
    53   30   31 ar
    54   30   52 1
    55   31   53 1
    56   33   34 1
    57   33   54 1
    58   33   55 1
    59   34   35 3
@<TRIPOS>MOLECULE
ZINC11328423
   73    75     0     0     0
SMALL
USER_CHARGES
(2,2,6,6-tetramethyl-4-oxo-1-piperidyl)carbonylmethyl 4-[(2,6-dimethyl-1-piperidyl)carbonylmethoxy]benzoate
@<TRIPOS>ATOM
      1 C1         10.9197   -5.6218    2.2209 C.3       1 <0>        -0.1677
      2 C2         11.1564   -4.2694    2.8959 C.3       1 <0>         0.1289
      3 H1         10.2483   -3.6687    2.8439 H         1 <0>         0.0895
      4 C3         12.3051   -3.5318    2.1913 C.3       1 <0>        -0.1304
      5 C4         13.6040   -4.3172    2.3870 C.3       1 <0>        -0.1232
      6 C5         13.9306   -4.4024    3.8797 C.3       1 <0>        -0.1329
      7 C6         12.8029   -5.1448    4.6035 C.3       1 <0>         0.1459
      8 H2         12.7658   -6.1783    4.2590 H         1 <0>         0.0747
      9 N1         11.5285   -4.4790    4.3017 N.am      1 <0>        -0.6017
     10 C7         10.7135   -4.0732    5.2956 C.2       1 <0>         0.5187
     11 O1         11.0713   -4.1691    6.4504 O.2       1 <0>        -0.5035
     12 C8          9.3578   -3.5003    4.9718 C.3       1 <0>         0.0354
     13 O2          8.6884   -3.1465    6.1837 O.3       1 <0>        -0.2821
     14 C9          7.4463   -2.6123    6.0682 C.ar      1 <0>         0.1695
     15 C10         6.7404   -2.2464    7.2084 C.ar      1 <0>        -0.1598
     16 C11         5.4798   -1.7045    7.0956 C.ar      1 <0>        -0.0095
     17 C12         4.9100   -1.5220    5.8322 C.ar      1 <0>        -0.1692
     18 C13         5.6213   -1.8962    4.6884 C.ar      1 <0>        -0.0137
     19 C14         6.8837   -2.4321    4.8098 C.ar      1 <0>        -0.2268
     20 C15         3.5601   -0.9418    5.7066 C.2       1 <0>         0.5173
     21 O3          2.9414   -0.6217    6.7021 O.2       1 <0>        -0.5084
     22 O4          3.0127   -0.7667    4.4878 O.3       1 <0>        -0.3395
     23 C16         1.6808   -0.1905    4.4400 C.3       1 <0>         0.0134
     24 C17         1.2364   -0.0712    3.0050 C.2       1 <0>         0.5283
     25 O5          2.0301   -0.2564    2.1069 O.2       1 <0>        -0.4934
     26 N2         -0.0433    0.2411    2.7196 N.am      1 <0>        -0.6108
     27 C18        -0.8773    0.9340    3.7101 C.3       1 <0>         0.1734
     28 C19        -1.3910    2.2419    3.0948 C.3       1 <0>        -0.1658
     29 C20        -1.9774    1.9326    1.7349 C.2       1 <0>         0.3620
     30 O6         -3.0972    2.2836    1.4499 O.2       1 <0>        -0.4452
     31 C21        -1.1268    1.1733    0.7404 C.3       1 <0>        -0.1674
     32 C22        -0.6198   -0.1078    1.4148 C.3       1 <0>         0.1830
     33 C23         0.4519   -0.7592    0.5383 C.3       1 <0>        -0.1454
     34 C24        -1.7829   -1.0820    1.6119 C.3       1 <0>        -0.1700
     35 C25        -2.0635    0.0465    4.0925 C.3       1 <0>        -0.1733
     36 C26        -0.0447    1.2421    4.9561 C.3       1 <0>        -0.2010
     37 C27        13.0537   -5.1128    6.1125 C.3       1 <0>        -0.1403
     38 H3         10.1148   -6.1481    2.7340 H         1 <0>         0.0605
     39 H4         10.6438   -5.4641    1.1782 H         1 <0>         0.0728
     40 H5         11.8317   -6.2167    2.2694 H         1 <0>         0.0666
     41 H6         12.4155   -2.5343    2.6168 H         1 <0>         0.0693
     42 H7         12.0858   -3.4509    1.1267 H         1 <0>         0.0792
     43 H8         14.4165   -3.8109    1.8658 H         1 <0>         0.0686
     44 H9         13.4846   -5.3226    1.9834 H         1 <0>         0.0685
     45 H10        14.0257   -3.3968    4.2893 H         1 <0>         0.0685
     46 H11        14.8680   -4.9414    4.0173 H         1 <0>         0.0772
     47 H12         8.7683   -4.2433    4.4346 H         1 <0>         0.0961
     48 H13         9.4774   -2.6128    4.3504 H         1 <0>         0.0951
     49 H14         7.1813   -2.3877    8.1842 H         1 <0>         0.1453
     50 H15         4.9320   -1.4204    7.9820 H         1 <0>         0.1476
     51 H16         5.1829   -1.7610    3.7107 H         1 <0>         0.1453
     52 H17         7.4358   -2.7171    3.9264 H         1 <0>         0.1366
     53 H18         1.6960    0.7981    4.8990 H         1 <0>         0.1378
     54 H19         0.9874   -0.8326    4.9830 H         1 <0>         0.1061
     55 H20        -2.0914    2.6373    3.6890 H         1 <0>         0.0949
     56 H21        -0.5658    2.9459    2.9877 H         1 <0>         0.1056
     57 H22        -0.3542    1.7427    0.4594 H         1 <0>         0.0957
     58 H23        -1.7253    0.9159   -0.1334 H         1 <0>         0.1030
     59 H24         0.8197   -1.6624    1.0250 H         1 <0>         0.0658
     60 H25         1.2772   -0.0618    0.3949 H         1 <0>         0.0913
     61 H26         0.0221   -1.0174   -0.4296 H         1 <0>         0.0573
     62 H27        -1.5616   -1.7481    2.4459 H         1 <0>         0.0712
     63 H28        -2.6934   -0.5222    1.8257 H         1 <0>         0.0657
     64 H29        -1.9224   -1.6698    0.7046 H         1 <0>         0.0737
     65 H30        -1.7294   -0.9870    4.1840 H         1 <0>         0.0728
     66 H31        -2.4754    0.3808    5.0447 H         1 <0>         0.0754
     67 H32        -2.8308    0.1134    3.3212 H         1 <0>         0.0703
     68 H33         0.8614    1.7737    4.6653 H         1 <0>         0.0809
     69 H34        -0.6268    1.8622    5.6379 H         1 <0>         0.0881
     70 H35         0.2245    0.3100    5.4529 H         1 <0>         0.0970
     71 H36        12.2777   -5.6842    6.6219 H         1 <0>         0.0726
     72 H37        14.0282   -5.5509    6.3282 H         1 <0>         0.0467
     73 H38        13.0338   -4.0807    6.4623 H         1 <0>         0.0715
@<TRIPOS>BOND
     1    1    2 1
     2    1   38 1
     3    1   39 1
     4    1   40 1
     5    2    3 1
     6    2    9 1
     7    2    4 1
     8    4    5 1
     9    4   41 1
    10    4   42 1
    11    5    6 1
    12    5   43 1
    13    5   44 1
    14    6    7 1
    15    6   45 1
    16    6   46 1
    17    7    8 1
    18    7    9 1
    19    7   37 1
    20    9   10 am
    21   10   11 2
    22   10   12 1
    23   12   13 1
    24   12   47 1
    25   12   48 1
    26   13   14 1
    27   14   19 ar
    28   14   15 ar
    29   15   16 ar
    30   15   49 1
    31   16   17 ar
    32   16   50 1
    33   17   18 ar
    34   17   20 1
    35   18   19 ar
    36   18   51 1
    37   19   52 1
    38   20   21 2
    39   20   22 1
    40   22   23 1
    41   23   24 1
    42   23   53 1
    43   23   54 1
    44   24   25 2
    45   24   26 am
    46   26   32 1
    47   26   27 1
    48   27   28 1
    49   27   35 1
    50   27   36 1
    51   28   29 1
    52   28   55 1
    53   28   56 1
    54   29   30 2
    55   29   31 1
    56   31   32 1
    57   31   57 1
    58   31   58 1
    59   32   33 1
    60   32   34 1
    61   33   59 1
    62   33   60 1
    63   33   61 1
    64   34   62 1
    65   34   63 1
    66   34   64 1
    67   35   65 1
    68   35   66 1
    69   35   67 1
    70   36   68 1
    71   36   69 1
    72   36   70 1
    73   37   71 1
    74   37   72 1
    75   37   73 1
@<TRIPOS>MOLECULE
ZINC15929185
   53    55     0     0     0
SMALL
USER_CHARGES
(E)-1-[4-(2-methyl-5-nitro-phenyl)sulfonylpiperazin-1-yl]-3-[3-(trifluoromethyl)phenyl]prop-2-en-1-one
@<TRIPOS>ATOM
      1 C1         -9.1316   -0.2899    1.4482 C.3       1 <0>        -0.2010
      2 C2         -9.0453    1.1370    1.9252 C.ar      1 <0>         0.0725
      3 C3         -9.2198    1.4297    3.2651 C.ar      1 <0>        -0.1372
      4 C4         -9.1401    2.7383    3.7027 C.ar      1 <0>         0.0021
      5 C5         -8.8860    3.7546    2.8005 C.ar      1 <0>        -0.0702
      6 C6         -8.7077    3.4616    1.4616 C.ar      1 <0>         0.0483
      7 C7         -8.7921    2.1531    1.0231 C.ar      1 <0>        -0.6894
      8 S1         -8.5698    1.7801   -0.6845 S.o2      1 <0>         2.6945
      9 O1         -8.4017    3.0226   -1.3531 O.2       1 <0>        -0.9380
     10 O2         -9.5929    0.8584   -1.0355 O.2       1 <0>        -0.9361
     11 N1         -7.1331    0.9686   -0.8255 N.pl3     1 <0>        -0.9926
     12 C8         -7.1019   -0.5007   -0.8369 C.3       1 <0>         0.0937
     13 C9         -6.1543   -0.9794    0.2699 C.3       1 <0>         0.0905
     14 N2         -4.8876   -0.2431    0.1546 N.am      1 <0>        -0.6078
     15 C10        -4.9183    1.2261    0.1717 C.3       1 <0>         0.0885
     16 C11        -5.8664    1.7049   -0.9408 C.3       1 <0>         0.1026
     17 C12        -3.7182   -0.9035    0.0408 C.2       1 <0>         0.5537
     18 O3         -3.7117   -2.1162   -0.0617 O.2       1 <0>        -0.5353
     19 C13        -2.4556   -0.1620    0.0404 C.2       1 <0>        -0.2171
     20 C14        -1.2832   -0.8272    0.0282 C.2       1 <0>        -0.0098
     21 C15        -0.0138   -0.0817    0.0279 C.ar      1 <0>        -0.0786
     22 C16        -0.0201    1.3168    0.0402 C.ar      1 <0>        -0.0700
     23 C17         1.1729    2.0078    0.0394 C.ar      1 <0>        -0.1185
     24 C18         2.3747    1.3211    0.0263 C.ar      1 <0>        -0.0576
     25 C19         2.3891   -0.0625    0.0140 C.ar      1 <0>        -0.1823
     26 C20         1.2042   -0.7681    0.0147 C.ar      1 <0>        -0.0450
     27 C21         3.7031   -0.8003   -0.0007 C.3       1 <0>         0.5084
     28 F1          4.1018   -1.0166   -1.3241 F         1 <0>        -0.1740
     29 F2          4.6730   -0.0387    0.6600 F         1 <0>        -0.1749
     30 F3          3.5544   -2.0306    0.6485 F         1 <0>        -0.1750
     31 N3         -8.8003    5.1560    3.2691 N.pl3     1 <0>         0.0263
     32 O4         -8.9536    5.4138    4.4496 O.2       1 <0>        -0.1513
     33 O5         -8.5764    6.0514    2.4743 O.3       1 <0>        -0.1488
     34 H1         -8.1626   -0.7736    1.5716 H         1 <0>         0.1030
     35 H2         -9.8812   -0.8236    2.0324 H         1 <0>         0.1022
     36 H3         -9.4135   -0.3046    0.3953 H         1 <0>         0.1178
     37 H4         -9.4179    0.6357    3.9699 H         1 <0>         0.1593
     38 H5         -9.2761    2.9669    4.7494 H         1 <0>         0.1638
     39 H6         -8.5055    4.2550    0.7574 H         1 <0>         0.1733
     40 H7         -6.7416   -0.8514   -1.8040 H         1 <0>         0.0913
     41 H8         -8.1031   -0.8918   -0.6559 H         1 <0>         0.1122
     42 H9         -5.9684   -2.0473    0.1557 H         1 <0>         0.1130
     43 H10        -6.6011   -0.7881    1.2455 H         1 <0>         0.0763
     44 H11        -5.2806    1.5732    1.1393 H         1 <0>         0.0767
     45 H12        -3.9159    1.6150   -0.0073 H         1 <0>         0.1047
     46 H13        -5.4181    1.5112   -1.9153 H         1 <0>         0.0916
     47 H14        -6.0527    2.7731   -0.8296 H         1 <0>         0.1058
     48 H15        -2.4636    0.9180    0.0500 H         1 <0>         0.1341
     49 H16        -1.2752   -1.9072    0.0186 H         1 <0>         0.1416
     50 H17        -0.9570    1.8540    0.0459 H         1 <0>         0.1368
     51 H18         1.1697    3.0878    0.0485 H         1 <0>         0.1418
     52 H19         3.3059    1.8681    0.0257 H         1 <0>         0.1407
     53 H20         1.2170   -1.8480    0.0055 H         1 <0>         0.1433
@<TRIPOS>BOND
     1    1    2 1
     2    1   34 1
     3    1   35 1
     4    1   36 1
     5    2    7 ar
     6    2    3 ar
     7    3    4 ar
     8    3   37 1
     9    4    5 ar
    10    4   38 1
    11    5    6 ar
    12    5   31 1
    13    6    7 ar
    14    6   39 1
    15    7    8 1
    16    8    9 2
    17    8   10 2
    18    8   11 1
    19   11   16 1
    20   11   12 1
    21   12   13 1
    22   12   40 1
    23   12   41 1
    24   13   14 1
    25   13   42 1
    26   13   43 1
    27   14   15 1
    28   14   17 am
    29   15   16 1
    30   15   44 1
    31   15   45 1
    32   16   46 1
    33   16   47 1
    34   17   18 2
    35   17   19 1
    36   19   20 2
    37   19   48 1
    38   20   21 1
    39   20   49 1
    40   21   26 ar
    41   21   22 ar
    42   22   23 ar
    43   22   50 1
    44   23   24 ar
    45   23   51 1
    46   24   25 ar
    47   24   52 1
    48   25   26 ar
    49   25   27 1
    50   26   53 1
    51   27   28 1
    52   27   29 1
    53   27   30 1
    54   31   32 2
    55   31   33 1
@<TRIPOS>MOLECULE
ZINC39431844
   57    60     0     0     0
SMALL
USER_CHARGES

@<TRIPOS>ATOM
      1 C1         -0.0187    1.5258    0.0104 C.3       1 <0>        -0.1542
      2 C2          0.0021   -0.0041    0.0020 C.3       1 <0>         0.0593
      3 O1         -1.3386   -0.4987    0.0122 O.3       1 <0>        -0.3369
      4 C3         -1.4964   -1.8317    0.0065 C.2       1 <0>         0.4920
      5 O2         -0.5283   -2.5546   -0.0066 O.2       1 <0>        -0.4695
      6 C4         -2.8809   -2.4266    0.0165 C.3       1 <0>        -0.0843
      7 H1         -3.5930   -1.7611   -0.4715 H         1 <0>         0.1923
      8 C5         -2.8874   -3.7936   -0.6289 C.2       1 <0>         0.0827
      9 C6         -3.2437   -4.8406    0.1301 C.2       1 <0>        -0.3007
     10 C7         -3.6026   -4.5760    1.5398 C.2       1 <0>         0.2772
     11 N1         -3.9604   -5.5582    2.3323 N.2       1 <0>        -0.5169
     12 C8         -4.0117   -6.8084    1.8999 C.2       1 <0>         0.4640
     13 N2         -3.7160   -7.1612    0.6720 N.2       1 <0>        -0.5884
     14 C9         -3.3324   -6.2836   -0.2611 C.2       1 <0>         0.5573
     15 O3         -3.0646   -6.6463   -1.3940 O.2       1 <0>        -0.4315
     16 C10        -4.4315   -7.8826    2.8699 C.3       1 <0>        -0.0278
     17 H2         -5.0459   -7.4428    3.6555 H         1 <0>         0.1415
     18 C11        -3.1885   -8.5219    3.4921 C.3       1 <0>        -0.1438
     19 S1         -5.3881   -9.1496    1.9922 S.3       1 <0>         0.0617
     20 C12        -5.9241  -10.2395    3.2687 C.2       1 <0>         0.3643
     21 N3         -5.5799   -9.9714    4.5042 N.2       1 <0>        -0.5334
     22 C13        -5.9551  -10.7620    5.5296 C.ar      1 <0>         0.1697
     23 C14        -5.5882  -10.4757    6.8481 C.ar      1 <0>        -0.1142
     24 C15        -5.9909  -11.3043    7.8571 C.ar      1 <0>        -0.0693
     25 C16        -6.7607  -12.4300    7.5934 C.ar      1 <0>        -0.1417
     26 C17        -7.1354  -12.7365    6.3144 C.ar      1 <0>        -0.0379
     27 C18        -6.7390  -11.9082    5.2654 C.ar      1 <0>        -0.2035
     28 C19        -7.1121  -12.1875    3.8721 C.2       1 <0>         0.5571
     29 O4         -7.7860  -13.1587    3.5814 O.2       1 <0>        -0.5001
     30 N4         -6.6835  -11.3212    2.9248 N.am      1 <0>        -0.5222
     31 C20        -7.0318  -11.5485    1.5200 C.3       1 <0>         0.1212
     32 C21        -6.4803  -12.9029    1.0705 C.3       1 <0>        -0.1698
     33 C22        -8.5539  -11.5405    1.3643 C.3       1 <0>        -0.1694
     34 S2         -3.4161   -2.8201    1.7311 S.3       1 <0>         0.0857
     35 C23        -2.5071   -3.9739   -2.0760 C.3       1 <0>        -0.1394
     36 H3          1.0039    1.9031    0.0027 H         1 <0>         0.0859
     37 H4         -0.5459    1.8868   -0.8726 H         1 <0>         0.0699
     38 H5         -0.5289    1.8773    0.9072 H         1 <0>         0.0702
     39 H6          0.5123   -0.3556   -0.8948 H         1 <0>         0.0756
     40 H7          0.5293   -0.3651    0.8851 H         1 <0>         0.0756
     41 H8         -2.5742   -8.9617    2.7065 H         1 <0>         0.0729
     42 H9         -2.6137   -7.7606    4.0195 H         1 <0>         0.0750
     43 H10        -3.4922   -9.2989    4.1937 H         1 <0>         0.0971
     44 H11        -4.9893   -9.6043    7.0678 H         1 <0>         0.1390
     45 H12        -5.7062  -11.0809    8.8746 H         1 <0>         0.1338
     46 H13        -7.0665  -13.0705    8.4075 H         1 <0>         0.1325
     47 H14        -7.7344  -13.6136    6.1184 H         1 <0>         0.1369
     48 H15        -6.5996  -10.7583    0.9061 H         1 <0>         0.1045
     49 H16        -5.3959  -12.9086    1.1815 H         1 <0>         0.0617
     50 H17        -6.9125  -13.6931    1.6845 H         1 <0>         0.0825
     51 H18        -6.7394  -13.0721    0.0254 H         1 <0>         0.0799
     52 H19        -8.9468  -10.5756    1.6845 H         1 <0>         0.0602
     53 H20        -8.8130  -11.7096    0.3191 H         1 <0>         0.0800
     54 H21        -8.9861  -12.3307    1.9782 H         1 <0>         0.0824
     55 H22        -1.4342   -4.1517   -2.1502 H         1 <0>         0.1109
     56 H23        -3.0461   -4.8261   -2.4899 H         1 <0>         0.1126
     57 H24        -2.7658   -3.0743   -2.6344 H         1 <0>         0.0898
@<TRIPOS>BOND
     1    1    2 1
     2    1   36 1
     3    1   37 1
     4    1   38 1
     5    2    3 1
     6    2   39 1
     7    2   40 1
     8    3    4 1
     9    4    5 2
    10    4    6 1
    11    6    7 1
    12    6   34 1
    13    6    8 1
    14    8    9 2
    15    8   35 1
    16    9   14 1
    17    9   10 1
    18   10   11 2
    19   10   34 1
    20   11   12 1
    21   12   13 2
    22   12   16 1
    23   13   14 1
    24   14   15 2
    25   16   17 1
    26   16   18 1
    27   16   19 1
    28   18   41 1
    29   18   42 1
    30   18   43 1
    31   19   20 1
    32   20   30 1
    33   20   21 2
    34   21   22 1
    35   22   27 ar
    36   22   23 ar
    37   23   24 ar
    38   23   44 1
    39   24   25 ar
    40   24   45 1
    41   25   26 ar
    42   25   46 1
    43   26   27 ar
    44   26   47 1
    45   27   28 1
    46   28   29 2
    47   28   30 am
    48   30   31 1
    49   31   32 1
    50   31   33 1
    51   31   48 1
    52   32   49 1
    53   32   50 1
    54   32   51 1
    55   33   52 1
    56   33   53 1
    57   33   54 1
    58   35   55 1
    59   35   56 1
    60   35   57 1
@<TRIPOS>MOLECULE
ZINC01063668
   55    59     0     0     0
SMALL
USER_CHARGES
4-chloro-N-[3-[4-(2-pyridyl)piperazin-1-yl]quinoxalin-2-yl]-benzenesulfonamide
@<TRIPOS>ATOM
      1 C1          1.3588   13.8902    0.0177 C.ar      1 <0>        -0.0746
      2 C2          1.9651   13.1758    1.0476 C.ar      1 <0>        -0.1000
      3 C3          1.9739   11.8136    1.0432 C.ar      1 <0>        -0.0732
      4 C4          1.3636   11.1161   -0.0116 C.ar      1 <0>         0.0637
      5 C5          0.7469   11.8424   -1.0584 C.ar      1 <0>         0.1334
      6 C6          0.7575   13.2460   -1.0210 C.ar      1 <0>        -0.0952
      7 N1          0.1610   11.1856   -2.0702 N.ar      1 <0>        -0.4673
      8 C7          0.1630    9.8688   -2.0838 C.ar      1 <0>         0.3927
      9 C8          0.7793    9.1425   -1.0367 C.ar      1 <0>         0.2473
     10 N2          1.3534    9.7752   -0.0347 N.ar      1 <0>        -0.4161
     11 N3          0.7736    7.7558   -1.0635 N.pl3     1 <0>        -0.4855
     12 C9          2.1385    7.2258   -1.1889 C.3       1 <0>         0.0598
     13 C10         2.0826    5.7000   -1.2948 C.3       1 <0>         0.0209
     14 N4          1.4156    5.1531   -0.1050 N.pl3     1 <0>        -0.4769
     15 C11         0.0507    5.6831    0.0203 C.3       1 <0>         0.0560
     16 C12         0.1065    7.2089    0.1262 C.3       1 <0>         0.0507
     17 C13         1.4098    3.7633   -0.1319 C.ar      1 <0>         0.3696
     18 C14         0.8217    3.0560    0.9120 C.ar      1 <0>        -0.1504
     19 C15         0.8188    1.6736    0.8701 C.ar      1 <0>         0.0368
     20 C16         1.4155    1.0421   -0.2134 C.ar      1 <0>        -0.1470
     21 C17         1.9806    1.8064   -1.2142 C.ar      1 <0>         0.1468
     22 N5         -0.4428    9.1895   -3.1302 N.pl3     1 <0>        -1.0165
     23 S1         -1.0139   10.0262   -4.4402 S.o2      1 <0>         2.6855
     24 O1         -1.5456    9.0615   -5.3380 O.2       1 <0>        -0.9413
     25 O2         -1.7907   11.1006   -3.9288 O.2       1 <0>        -0.9129
     26 C18         0.3777   10.7488   -5.2438 C.ar      1 <0>        -0.6775
     27 C19         0.8021   12.0147   -4.8855 C.ar      1 <0>         0.0111
     28 C20         1.8971   12.5798   -5.5116 C.ar      1 <0>        -0.1348
     29 C21         2.5616   11.8829   -6.5050 C.ar      1 <0>         0.0228
     30 C22         2.1329   10.6183   -6.8672 C.ar      1 <0>        -0.1354
     31 C23         1.0413   10.0519   -6.2364 C.ar      1 <0>        -0.0082
     32 Cl1         3.9330   12.5946   -7.2964 Cl        1 <0>        -0.0462
     33 H1          1.3649   14.9699    0.0430 H         1 <0>         0.1439
     34 H2          2.4352   13.7088    1.8608 H         1 <0>         0.1419
     35 H3          2.4478   11.2721    1.8485 H         1 <0>         0.1411
     36 H4          0.2904   13.8128   -1.8128 H         1 <0>         0.1476
     37 H5          2.7203    7.5084   -0.3115 H         1 <0>         0.0780
     38 H6          2.6069    7.6356   -2.0837 H         1 <0>         0.1039
     39 H7          3.0956    5.3026   -1.3587 H         1 <0>         0.1049
     40 H8          1.5239    5.4176   -2.1870 H         1 <0>         0.0822
     41 H9         -0.5312    5.4005   -0.8570 H         1 <0>         0.0827
     42 H10        -0.4178    5.2733    0.9152 H         1 <0>         0.1151
     43 H11         0.6653    7.4913    1.0185 H         1 <0>         0.0788
     44 H12        -0.9065    7.6063    0.1902 H         1 <0>         0.1065
     45 H13         0.3696    3.5794    1.7416 H         1 <0>         0.1865
     46 H14         0.3661    1.0981    1.6640 H         1 <0>         0.1791
     47 H15         1.4333   -0.0360   -0.2744 H         1 <0>         0.1872
     48 H16         2.4418    1.3194   -2.0607 H         1 <0>         0.1974
     49 H17        -0.5321    8.2242   -3.0947 H         1 <0>         0.4408
     50 H18         0.2807   12.5605   -4.1130 H         1 <0>         0.1587
     51 H19         2.2313   13.5670   -5.2284 H         1 <0>         0.1466
     52 H20         2.6514   10.0736   -7.6423 H         1 <0>         0.1462
     53 H21         0.7067    9.0646   -6.5188 H         1 <0>         0.1490
     54 N6          1.9973    3.1663   -1.2087 N.ar      1 <0>        -0.5245
     55 H22         2.4254    3.7096   -1.9675 H         1 <0>         0.4686
@<TRIPOS>BOND
     1    1    6 ar
     2    1    2 ar
     3    1   33 1
     4    2    3 ar
     5    2   34 1
     6    3    4 ar
     7    3   35 1
     8    4   10 ar
     9    4    5 ar
    10    5    6 ar
    11    5    7 ar
    12    6   36 1
    13    7    8 ar
    14    8    9 ar
    15    8   22 1
    16    9   10 ar
    17    9   11 1
    18   11   16 1
    19   11   12 1
    20   12   13 1
    21   12   37 1
    22   12   38 1
    23   13   14 1
    24   13   39 1
    25   13   40 1
    26   14   15 1
    27   14   17 1
    28   15   16 1
    29   15   41 1
    30   15   42 1
    31   16   43 1
    32   16   44 1
    33   17   18 ar
    34   17   54 ar
    35   18   19 ar
    36   18   45 1
    37   19   20 ar
    38   19   46 1
    39   20   21 ar
    40   20   47 1
    41   21   48 1
    42   21   54 ar
    43   22   23 1
    44   22   49 1
    45   23   24 2
    46   23   25 2
    47   23   26 1
    48   26   31 ar
    49   26   27 ar
    50   27   28 ar
    51   27   50 1
    52   28   29 ar
    53   28   51 1
    54   29   30 ar
    55   29   32 1
    56   30   31 ar
    57   30   52 1
    58   31   53 1
    59   54   55 1
@<TRIPOS>MOLECULE
ZINC13498894
   76    80     0     0     0
SMALL
USER_CHARGES
3-[[[(1R)-1-(1-cyclohexyltetrazol-5-yl)-2-methyl-propyl]-cyclopentyl-amino]methyl]-6,7-dimethyl-1H-quinolin-2-one
@<TRIPOS>ATOM
      1 C1         -5.7680   -1.8383    4.8105 C.3       1 <0>        -0.1253
      2 C2         -6.3593   -0.5914    4.2052 C.ar      1 <0>        -0.1047
      3 C3         -5.6086    0.1698    3.3542 C.ar      1 <0>        -0.0416
      4 C4         -6.1570    1.3272    2.7926 C.ar      1 <0>        -0.1566
      5 C5         -5.3810    2.1659    1.8772 C.2       1 <0>         0.0687
      6 C6         -5.9652    3.2765    1.3635 C.2       1 <0>        -0.2868
      7 C7         -7.2927    3.6068    1.7108 C.2       1 <0>         0.5535
      8 O1         -7.7988    4.6094    1.2372 O.2       1 <0>        -0.5510
      9 N1         -8.0133    2.8430    2.5505 N.am      1 <0>        -0.6142
     10 H1         -8.9232    3.0991    2.7680 H         1 <0>         0.4262
     11 C8         -7.4795    1.6979    3.1024 C.ar      1 <0>         0.1980
     12 C9         -8.2224    0.9106    3.9755 C.ar      1 <0>        -0.1654
     13 C10        -7.6614   -0.2261    4.5173 C.ar      1 <0>         0.0021
     14 C11        -8.4706   -1.0813    5.4579 C.3       1 <0>        -0.1363
     15 C12        -5.1940    4.1617    0.4186 C.3       1 <0>         0.0539
     16 C13        -4.3206    4.0445   -1.8366 C.3       1 <0>         0.0027
     17 C14        -4.5168    3.3712   -3.2106 C.3       1 <0>        -0.1427
     18 C15        -3.0947    2.9020   -3.6094 C.3       1 <0>        -0.1219
     19 C16        -2.4985    2.4306   -2.2599 C.3       1 <0>        -0.1277
     20 C17        -3.0377    3.4471   -1.2324 C.3       1 <0>        -0.1458
     21 C18        -6.6876    4.4007   -1.4721 C.3       1 <0>         0.1133
     22 H2         -7.4266    4.4578   -0.6729 H         1 <0>         0.1744
     23 C19        -6.3586    5.7906   -1.9524 C.2       1 <0>         0.1310
     24 N2         -5.4611    6.1163   -2.8505 N.2       1 <0>        -0.2812
     25 N3         -5.4800    7.3975   -2.9855 N.2       1 <0>        -0.0597
     26 N4         -6.3662    7.8975   -2.1969 N.2       1 <0>        -0.0546
     27 N5         -6.9334    6.9381   -1.5469 N.pl3     1 <0>        -0.2656
     28 C20        -8.0000    7.0728   -0.5517 C.3       1 <0>         0.1277
     29 C21        -9.2228    7.7252   -1.1998 C.3       1 <0>        -0.1306
     30 C22       -10.3368    7.8658   -0.1605 C.3       1 <0>        -0.1139
     31 C23        -9.8470    8.7379    0.9974 C.3       1 <0>        -0.1286
     32 C24        -8.6242    8.0854    1.6454 C.3       1 <0>        -0.1131
     33 C25        -7.5102    7.9448    0.6061 C.3       1 <0>        -0.1202
     34 C26        -7.2542    3.5806   -2.6329 C.3       1 <0>        -0.1258
     35 C27        -7.4424    2.1290   -2.1877 C.3       1 <0>        -0.1665
     36 C28        -8.6038    4.1629   -3.0577 C.3       1 <0>        -0.1506
     37 H3         -5.9706   -2.6893    4.1602 H         1 <0>         0.0793
     38 H4         -4.6907   -1.7133    4.9202 H         1 <0>         0.0732
     39 H5         -6.2148   -2.0143    5.7891 H         1 <0>         0.0787
     40 H6         -4.5960   -0.1210    3.1166 H         1 <0>         0.1435
     41 H7         -4.3658    1.9055    1.6165 H         1 <0>         0.1562
     42 H8         -9.2364    1.1863    4.2247 H         1 <0>         0.1432
     43 H9         -9.0106   -1.8375    4.8880 H         1 <0>         0.0880
     44 H10        -7.8045   -1.5695    6.1693 H         1 <0>         0.0848
     45 H11        -9.1821   -0.4557    5.9969 H         1 <0>         0.0777
     46 H12        -5.4995    5.1982    0.5609 H         1 <0>         0.1353
     47 H13        -4.1271    4.0663    0.6206 H         1 <0>         0.1494
     48 H14        -4.2082    5.1215   -1.9612 H         1 <0>         0.1633
     49 H15        -5.1897    2.5180   -3.1248 H         1 <0>         0.0842
     50 H16        -4.8999    4.0890   -3.9359 H         1 <0>         0.1106
     51 H17        -2.5162    3.7300   -4.0191 H         1 <0>         0.0850
     52 H18        -3.1421    2.0769   -4.3201 H         1 <0>         0.0872
     53 H19        -1.4094    2.4620   -2.2922 H         1 <0>         0.0873
     54 H20        -2.8451    1.4253   -2.0201 H         1 <0>         0.0757
     55 H21        -2.3024    4.2340   -1.0645 H         1 <0>         0.1032
     56 H22        -3.2666    2.9438   -0.2930 H         1 <0>         0.0796
     57 H23        -8.2715    6.0868   -0.1744 H         1 <0>         0.1385
     58 H24        -8.9514    8.7112   -1.5771 H         1 <0>         0.0867
     59 H25        -9.5718    7.1040   -2.0246 H         1 <0>         0.0725
     60 H26       -10.6082    6.8799    0.2168 H         1 <0>         0.0693
     61 H27       -11.2079    8.3307   -0.6222 H         1 <0>         0.0801
     62 H28       -10.6406    8.8381    1.7378 H         1 <0>         0.0745
     63 H29        -9.5755    9.7238    0.6201 H         1 <0>         0.0698
     64 H30        -8.8956    7.0995    2.0227 H         1 <0>         0.0735
     65 H31        -8.2752    8.7067    2.4703 H         1 <0>         0.0767
     66 H32        -6.6391    7.4800    1.0678 H         1 <0>         0.0678
     67 H33        -7.2388    8.9307    0.2288 H         1 <0>         0.0834
     68 H34        -6.5622    3.6158   -3.4743 H         1 <0>         0.1217
     69 H35        -8.1980    2.0845   -1.4034 H         1 <0>         0.0761
     70 H36        -7.7649    1.5273   -3.0375 H         1 <0>         0.0988
     71 H37        -6.4983    1.7409   -1.8052 H         1 <0>         0.0495
     72 H38        -8.4697    5.1971   -3.3748 H         1 <0>         0.0593
     73 H39        -9.0074    3.5787   -3.8846 H         1 <0>         0.0871
     74 H40        -9.2957    4.1277   -2.2162 H         1 <0>         0.0685
     75 N6         -5.4726    3.7276   -0.9665 N.4       1 <0>        -0.3861
     76 H41        -5.6264    2.7125   -0.9733 H         1 <0>         0.4256
@<TRIPOS>BOND
     1    1    2 1
     2    1   37 1
     3    1   38 1
     4    1   39 1
     5    2   13 ar
     6    2    3 ar
     7    3    4 ar
     8    3   40 1
     9    4   11 ar
    10    4    5 1
    11    5    6 2
    12    5   41 1
    13    6    7 1
    14    6   15 1
    15    7    8 2
    16    7    9 am
    17    9   10 1
    18    9   11 1
    19   11   12 ar
    20   12   13 ar
    21   12   42 1
    22   13   14 1
    23   14   43 1
    24   14   44 1
    25   14   45 1
    26   15   46 1
    27   15   47 1
    28   15   75 1
    29   16   20 1
    30   16   17 1
    31   16   48 1
    32   16   75 1
    33   17   18 1
    34   17   49 1
    35   17   50 1
    36   18   19 1
    37   18   51 1
    38   18   52 1
    39   19   20 1
    40   19   53 1
    41   19   54 1
    42   20   55 1
    43   20   56 1
    44   21   22 1
    45   21   23 1
    46   21   34 1
    47   21   75 1
    48   23   27 1
    49   23   24 2
    50   24   25 1
    51   25   26 2
    52   26   27 1
    53   27   28 1
    54   28   33 1
    55   28   29 1
    56   28   57 1
    57   29   30 1
    58   29   58 1
    59   29   59 1
    60   30   31 1
    61   30   60 1
    62   30   61 1
    63   31   32 1
    64   31   62 1
    65   31   63 1
    66   32   33 1
    67   32   64 1
    68   32   65 1
    69   33   66 1
    70   33   67 1
    71   34   35 1
    72   34   36 1
    73   34   68 1
    74   35   69 1
    75   35   70 1
    76   35   71 1
    77   36   72 1
    78   36   73 1
    79   36   74 1
    80   75   76 1
@<TRIPOS>MOLECULE
ZINC34747615
   74    78     0     0     0
SMALL
USER_CHARGES

@<TRIPOS>ATOM
      1 C1         -6.5960    1.5352   -3.1636 C.3       1 <0>        -0.1546
      2 C2         -5.2791    1.2521   -2.4379 C.3       1 <0>        -0.1180
      3 C3         -5.3226   -0.1518   -1.8313 C.3       1 <0>        -0.1329
      4 C4         -4.0058   -0.4349   -1.1056 C.3       1 <0>         0.0922
      5 N1         -4.0474   -1.7791   -0.5247 N.am      1 <0>        -0.5237
      6 C5         -4.6182   -1.9597    0.6806 C.2       1 <0>         0.5543
      7 O1         -5.0972   -1.0158    1.2853 O.2       1 <0>        -0.5050
      8 C6         -4.6553   -3.2754    1.2422 C.2       1 <0>        -0.2266
      9 C7         -5.2187   -3.6988    2.5256 C.2       1 <0>        -0.0562
     10 C8         -5.1289   -5.0091    2.8307 C.2       1 <0>        -0.1532
     11 S1         -4.3012   -5.7482    1.4484 S.3       1 <0>         0.1588
     12 C9         -4.0763   -4.2899    0.4618 C.2       1 <0>         0.0887
     13 N2         -3.5279   -4.0440   -0.7227 N.2       1 <0>        -0.4766
     14 C10        -3.5121   -2.8241   -1.2183 C.2       1 <0>         0.6156
     15 N3         -2.9439   -2.6003   -2.4477 N.pl3     1 <0>        -0.6521
     16 C11        -1.5191   -2.2556   -2.5710 C.3       1 <0>         0.1191
     17 C12        -0.8831   -3.1836   -3.6113 C.3       1 <0>        -0.0205
     18 N4         -1.6380   -3.0990   -4.8679 N.4       1 <0>        -0.3681
     19 C13        -3.0014   -3.6059   -4.6673 C.3       1 <0>        -0.0307
     20 C14        -3.7410   -2.7044   -3.6797 C.3       1 <0>         0.1235
     21 C15        -0.9649   -3.9031   -5.8965 C.3       1 <0>        -0.0324
     22 C16        -1.6678   -3.7201   -7.2170 C.2       1 <0>         0.5011
     23 O2         -2.6343   -2.9915   -7.2935 O.2       1 <0>        -0.5271
     24 N5         -1.2224   -4.3661   -8.3127 N.am      1 <0>        -0.6982
     25 C17        -1.9057   -4.1881   -9.5964 C.3       1 <0>         0.1418
     26 C18        -3.0861   -5.1575   -9.6844 C.3       1 <0>        -0.1279
     27 C19        -3.7997   -4.9717  -11.0250 C.3       1 <0>        -0.1192
     28 C20        -2.8215   -5.2542  -12.1670 C.3       1 <0>        -0.1264
     29 C21        -1.6411   -4.2848  -12.0789 C.3       1 <0>        -0.1181
     30 C22        -0.9274   -4.4706  -10.7383 C.3       1 <0>        -0.1281
     31 C23        -5.6225   -5.6882    4.0718 C.3       1 <0>        -0.0420
     32 C24        -5.9214   -4.6127    5.1261 C.3       1 <0>        -0.1161
     33 C25        -6.7495   -3.5021    4.4730 C.3       1 <0>        -0.1248
     34 C26        -5.8813   -2.7175    3.4886 C.3       1 <0>        -0.0595
     35 H1         -6.5650    2.5353   -3.5958 H         1 <0>         0.0608
     36 H2         -6.7390    0.8010   -3.9565 H         1 <0>         0.0531
     37 H3         -7.4222    1.4708   -2.4555 H         1 <0>         0.0578
     38 H4         -4.4530    1.3165   -3.1460 H         1 <0>         0.0617
     39 H5         -5.1361    1.9863   -1.6450 H         1 <0>         0.0697
     40 H6         -6.1488   -0.2162   -1.1232 H         1 <0>         0.0760
     41 H7         -5.4656   -0.8860   -2.6242 H         1 <0>         0.0617
     42 H8         -3.1796   -0.3705   -1.8137 H         1 <0>         0.0918
     43 H9         -3.8628    0.2993   -0.3127 H         1 <0>         0.1024
     44 H10        -1.4196   -1.2196   -2.8949 H         1 <0>         0.0950
     45 H11        -1.0249   -2.3907   -1.6089 H         1 <0>         0.1240
     46 H12         0.1491   -2.8801   -3.7863 H         1 <0>         0.1457
     47 H13        -0.9031   -4.2095   -3.2437 H         1 <0>         0.1415
     48 H14        -3.5302   -3.6137   -5.6204 H         1 <0>         0.1589
     49 H15        -2.9573   -4.6191   -4.2677 H         1 <0>         0.1353
     50 H16        -4.7152   -3.1361   -3.4502 H         1 <0>         0.1207
     51 H17        -3.8697   -1.7144   -4.1175 H         1 <0>         0.0960
     52 H18         0.0721   -3.5804   -5.9892 H         1 <0>         0.1620
     53 H19        -0.9940   -4.9550   -5.6122 H         1 <0>         0.1604
     54 H20        -0.4494   -4.9488   -8.2515 H         1 <0>         0.4101
     55 H21        -2.2700   -3.1639   -9.6751 H         1 <0>         0.0976
     56 H22        -2.7217   -6.1818   -9.6057 H         1 <0>         0.0680
     57 H23        -3.7830   -4.9563   -8.8709 H         1 <0>         0.0659
     58 H24        -4.6407   -5.6623  -11.0877 H         1 <0>         0.0710
     59 H25        -4.1641   -3.9474  -11.1037 H         1 <0>         0.0667
     60 H26        -2.4571   -6.2785  -12.0883 H         1 <0>         0.0655
     61 H27        -3.3299   -5.1218  -13.1220 H         1 <0>         0.0706
     62 H28        -0.9441   -4.4860  -12.8925 H         1 <0>         0.0743
     63 H29        -2.0054   -3.2605  -12.1576 H         1 <0>         0.0677
     64 H30        -0.0865   -3.7800  -10.6756 H         1 <0>         0.0719
     65 H31        -0.5631   -5.4949  -10.6596 H         1 <0>         0.0727
     66 H32        -6.5320   -6.2458    3.8482 H         1 <0>         0.0902
     67 H33        -4.8576   -6.3678    4.4474 H         1 <0>         0.0878
     68 H34        -6.4849   -5.0534    5.9485 H         1 <0>         0.0800
     69 H35        -4.9857   -4.1985    5.5015 H         1 <0>         0.0705
     70 H36        -7.5920   -3.9438    3.9408 H         1 <0>         0.0669
     71 H37        -7.1228   -2.8278    5.2437 H         1 <0>         0.0750
     72 H38        -5.1148   -2.1679    4.0347 H         1 <0>         0.0805
     73 H39        -6.5041   -2.0202    2.9283 H         1 <0>         0.0862
     74 H40        -1.6792   -2.1371   -5.1700 H         1 <0>         0.4293
@<TRIPOS>BOND
     1    1    2 1
     2    1   35 1
     3    1   36 1
     4    1   37 1
     5    2    3 1
     6    2   38 1
     7    2   39 1
     8    3    4 1
     9    3   40 1
    10    3   41 1
    11    4    5 1
    12    4   42 1
    13    4   43 1
    14    5   14 1
    15    5    6 am
    16    6    7 2
    17    6    8 1
    18    8   12 2
    19    8    9 1
    20    9   34 1
    21    9   10 2
    22   10   11 1
    23   10   31 1
    24   11   12 1
    25   12   13 1
    26   13   14 2
    27   14   15 1
    28   15   20 1
    29   15   16 1
    30   16   17 1
    31   16   44 1
    32   16   45 1
    33   17   18 1
    34   17   46 1
    35   17   47 1
    36   18   19 1
    37   18   21 1
    38   18   74 1
    39   19   20 1
    40   19   48 1
    41   19   49 1
    42   20   50 1
    43   20   51 1
    44   21   22 1
    45   21   52 1
    46   21   53 1
    47   22   23 2
    48   22   24 am
    49   24   25 1
    50   24   54 1
    51   25   30 1
    52   25   26 1
    53   25   55 1
    54   26   27 1
    55   26   56 1
    56   26   57 1
    57   27   28 1
    58   27   58 1
    59   27   59 1
    60   28   29 1
    61   28   60 1
    62   28   61 1
    63   29   30 1
    64   29   62 1
    65   29   63 1
    66   30   64 1
    67   30   65 1
    68   31   32 1
    69   31   66 1
    70   31   67 1
    71   32   33 1
    72   32   68 1
    73   32   69 1
    74   33   34 1
    75   33   70 1
    76   33   71 1
    77   34   72 1
    78   34   73 1
@<TRIPOS>MOLECULE
ZINC42484234
   64    68     0     0     0
SMALL
USER_CHARGES

@<TRIPOS>ATOM
      1 C1          0.4094    1.2098   -0.5099 C.3       1 <0>        -0.1785
      2 C2          0.2390   -0.2761   -0.8325 C.3       1 <0>         0.1183
      3 H1          0.2771   -0.4201   -1.9123 H         1 <0>         0.1548
      4 C3         -1.0904   -0.7547   -0.3084 C.2       1 <0>         0.0323
      5 C4         -2.3116   -0.6561   -0.9754 C.2       1 <0>        -0.2373
      6 C5         -3.2728   -1.2016   -0.1721 C.2       1 <0>         0.1705
      7 N1         -2.6564   -1.6275    0.9664 N.pl3     1 <0>        -0.4475
      8 H2         -3.0855   -2.0576    1.7226 H         1 <0>         0.4497
      9 N2         -1.2913   -1.3375    0.8462 N.2       1 <0>        -0.2896
     10 C6         -4.7160   -1.3095   -0.4809 C.ar      1 <0>        -0.0613
     11 C7         -5.2101   -0.8325   -1.6951 C.ar      1 <0>        -0.0821
     12 C8         -6.5568   -0.9360   -1.9771 C.ar      1 <0>        -0.1140
     13 C9         -7.4166   -1.5110   -1.0584 C.ar      1 <0>        -0.0939
     14 C10        -6.9328   -1.9855    0.1478 C.ar      1 <0>        -0.1129
     15 C11        -5.5872   -1.8939    0.4387 C.ar      1 <0>        -0.1022
     16 N3          1.3200   -1.0420   -0.1979 N.4       1 <0>        -0.3816
     17 C12         2.6175   -0.5443   -0.6739 C.3       1 <0>        -0.0614
     18 C13         1.1830   -2.4627   -0.5456 C.3       1 <0>         0.0273
     19 H3          0.1641   -2.7782   -0.3210 H         1 <0>         0.1392
     20 C14         2.1402   -3.2668    0.3154 C.3       1 <0>        -0.1337
     21 C15         1.9009   -4.7678    0.1354 C.3       1 <0>        -0.1303
     22 C16         2.6787   -5.2362   -1.0765 C.2       1 <0>         0.5107
     23 O1          3.6609   -5.9329   -0.9321 O.2       1 <0>        -0.5181
     24 N4          2.2875   -4.8847   -2.3021 N.am      1 <0>        -0.6024
     25 C17         1.0935   -4.0450   -2.4914 C.3       1 <0>         0.1166
     26 C18         1.4221   -2.6219   -2.0360 C.3       1 <0>        -0.1703
     27 C19         3.0513   -5.3370   -3.4675 C.3       1 <0>         0.1519
     28 C20         4.2049   -4.3975   -3.7075 C.ar      1 <0>        -0.0906
     29 C21         5.4599   -4.7060   -3.2156 C.ar      1 <0>        -0.0641
     30 C22         6.5218   -3.8445   -3.4351 C.ar      1 <0>         0.0439
     31 C23         6.3225   -2.6670   -4.1523 C.ar      1 <0>         0.0545
     32 C24         5.0634   -2.3639   -4.6432 C.ar      1 <0>        -0.0996
     33 C25         4.0077   -3.2311   -4.4242 C.ar      1 <0>        -0.0233
     34 Cl1         2.4317   -2.8521   -5.0457 Cl        1 <0>        -0.0528
     35 O2          7.5097   -1.9978   -4.2307 O.3       1 <0>        -0.3002
     36 C26         8.3440   -2.5737   -3.2082 C.3       1 <0>         0.2121
     37 O3          7.8340   -3.9126   -3.0644 O.3       1 <0>        -0.2992
     38 H4          0.3713    1.3539    0.5699 H         1 <0>         0.0841
     39 H5          1.3709    1.5560   -0.8889 H         1 <0>         0.0923
     40 H6         -0.3927    1.7781   -0.9808 H         1 <0>         0.1108
     41 H7         -2.4693   -0.2251   -1.9531 H         1 <0>         0.1620
     42 H8         -4.5399   -0.3828   -2.4128 H         1 <0>         0.1315
     43 H9         -6.9405   -0.5671   -2.9168 H         1 <0>         0.1351
     44 H10        -8.4699   -1.5894   -1.2835 H         1 <0>         0.1332
     45 H11        -7.6092   -2.4330    0.8610 H         1 <0>         0.1333
     46 H12        -5.2100   -2.2691    1.3786 H         1 <0>         0.1197
     47 H13         2.7675    0.4756   -0.3199 H         1 <0>         0.1306
     48 H14         3.4140   -1.1825   -0.2914 H         1 <0>         0.1262
     49 H15         2.6338   -0.5567   -1.7637 H         1 <0>         0.1267
     50 H16         3.1651   -3.0299    0.0298 H         1 <0>         0.0914
     51 H17         1.9898   -3.0024    1.3621 H         1 <0>         0.1017
     52 H18         2.2454   -5.3023    1.0207 H         1 <0>         0.1190
     53 H19         0.8378   -4.9535   -0.0176 H         1 <0>         0.0988
     54 H20         0.8152   -4.0373   -3.5453 H         1 <0>         0.1089
     55 H21         0.2703   -4.4402   -1.8962 H         1 <0>         0.0874
     56 H22         0.7893   -1.9190   -2.5776 H         1 <0>         0.1006
     57 H23         2.4674   -2.4052   -2.2564 H         1 <0>         0.1008
     58 H24         3.4328   -6.3415   -3.2844 H         1 <0>         0.1049
     59 H25         2.4037   -5.3485   -4.3442 H         1 <0>         0.1031
     60 H26         5.6120   -5.6193   -2.6595 H         1 <0>         0.1535
     61 H27         4.9062   -1.4517   -5.1996 H         1 <0>         0.1490
     62 H28         9.3854   -2.5930   -3.5295 H         1 <0>         0.1411
     63 H29         8.2406   -2.0221   -2.2738 H         1 <0>         0.0902
     64 H30         1.2654   -0.9342    0.8039 H         1 <0>         0.4296
@<TRIPOS>BOND
     1    1    2 1
     2    1   38 1
     3    1   39 1
     4    1   40 1
     5    2    3 1
     6    2    4 1
     7    2   16 1
     8    4    9 2
     9    4    5 1
    10    5    6 2
    11    5   41 1
    12    6    7 1
    13    6   10 1
    14    7    8 1
    15    7    9 1
    16   10   15 ar
    17   10   11 ar
    18   11   12 ar
    19   11   42 1
    20   12   13 ar
    21   12   43 1
    22   13   14 ar
    23   13   44 1
    24   14   15 ar
    25   14   45 1
    26   15   46 1
    27   16   17 1
    28   16   18 1
    29   16   64 1
    30   17   47 1
    31   17   48 1
    32   17   49 1
    33   18   19 1
    34   18   26 1
    35   18   20 1
    36   20   21 1
    37   20   50 1
    38   20   51 1
    39   21   22 1
    40   21   52 1
    41   21   53 1
    42   22   23 2
    43   22   24 am
    44   24   25 1
    45   24   27 1
    46   25   26 1
    47   25   54 1
    48   25   55 1
    49   26   56 1
    50   26   57 1
    51   27   28 1
    52   27   58 1
    53   27   59 1
    54   28   33 ar
    55   28   29 ar
    56   29   30 ar
    57   29   60 1
    58   30   37 1
    59   30   31 ar
    60   31   32 ar
    61   31   35 1
    62   32   33 ar
    63   32   61 1
    64   33   34 1
    65   35   36 1
    66   36   37 1
    67   36   62 1
    68   36   63 1
@<TRIPOS>MOLECULE
ZINC63376029
   69    74     0     0     0
SMALL
USER_CHARGES

@<TRIPOS>ATOM
      1 C1          2.3746    0.0399    0.8739 C.3       1 <0>        -0.1225
      2 C2          1.1468   -0.7040    0.4152 C.ar      1 <0>        -0.0191
      3 C3          1.1266   -1.3027   -0.8309 C.ar      1 <0>        -0.1095
      4 C4          0.0005   -1.9849   -1.2516 C.ar      1 <0>        -0.0875
      5 C5         -1.1054   -2.0689   -0.4262 C.ar      1 <0>        -0.1191
      6 C6         -1.0849   -1.4711    0.8198 C.ar      1 <0>        -0.1082
      7 C7          0.0431   -0.7924    1.2424 C.ar      1 <0>        -0.1222
      8 C8          0.0674   -0.1451    2.6031 C.3       1 <0>         0.2498
      9 H1          0.5320    0.8388    2.5387 H         1 <0>         0.1165
     10 C9         -1.3627   -0.0154    3.1480 C.3       1 <0>         0.0662
     11 H2         -1.9205   -0.9371    2.9825 H         1 <0>         0.1827
     12 C10        -1.2470    0.2816    4.6367 C.2       1 <0>         0.0695
     13 C11        -1.9012    1.4205    4.8423 C.ar      1 <0>        -0.1565
     14 C12        -2.1884    2.1748    6.0729 C.ar      1 <0>         0.0024
     15 C13        -2.8889    3.3295    5.9181 C.ar      1 <0>        -0.1578
     16 C14        -3.3273    3.8030    4.6775 C.ar      1 <0>         0.0570
     17 C15        -3.1108    3.1724    3.4957 C.ar      1 <0>        -0.2046
     18 C16        -2.3874    1.9447    3.5302 C.ar      1 <0>         0.3339
     19 N1         -2.0613    1.1238    2.5484 N.pl3     1 <0>        -0.5785
     20 C17        -0.4566   -0.5788    5.5947 C.3       1 <0>        -0.0842
     21 C18         0.9526   -0.7217    4.9933 C.3       1 <0>         0.0975
     22 H3          1.5560    0.1672    5.1771 H         1 <0>         0.1476
     23 N2          0.8106   -0.9901    3.5475 N.am      1 <0>        -0.6246
     24 C19         1.4573   -2.1359    3.3008 C.2       1 <0>         0.7268
     25 O1          1.6358   -2.5877    2.1868 O.2       1 <0>        -0.4957
     26 N3          1.8857   -2.7268    4.4250 N.am      1 <0>        -0.5239
     27 C20         1.6199   -1.9674    5.5345 C.2       1 <0>         0.5468
     28 O2          1.8591   -2.2248    6.6947 O.2       1 <0>        -0.4324
     29 C21         2.5319   -3.9641    4.4639 C.ar      1 <0>         0.1780
     30 C22         3.9151   -4.0313    4.3748 C.ar      1 <0>        -0.1031
     31 C23         4.5524   -5.2554    4.4139 C.ar      1 <0>        -0.0775
     32 C24         3.8189   -6.4236    4.5421 C.ar      1 <0>        -0.1031
     33 C25         2.4444   -6.3757    4.6315 C.ar      1 <0>        -0.0783
     34 C26         1.7867   -5.1440    4.5991 C.ar      1 <0>        -0.1220
     35 C27         0.3157   -5.0852    4.7005 C.2       1 <0>         0.5687
     36 O3         -0.2535   -4.0113    4.6669 O.2       1 <0>        -0.5488
     37 N4         -0.3968   -6.2218    4.8303 N.am      1 <0>        -0.7187
     38 C28        -1.8571   -6.1634    4.9310 C.3       1 <0>         0.1265
     39 C29        -2.4159   -7.5810    5.0692 C.3       1 <0>        -0.1104
     40 C30        -1.9431   -8.1889    6.3913 C.3       1 <0>        -0.1515
     41 C31        -3.9449   -7.5307    5.0490 C.3       1 <0>        -0.1460
     42 H4          2.9986   -0.6234    1.4728 H         1 <0>         0.0776
     43 H5          2.9374    0.3824    0.0055 H         1 <0>         0.0750
     44 H6          2.0757    0.8986    1.4750 H         1 <0>         0.0602
     45 H7          1.9905   -1.2370   -1.4756 H         1 <0>         0.1293
     46 H8         -0.0155   -2.4520   -2.2252 H         1 <0>         0.1294
     47 H9         -1.9856   -2.6014   -0.7552 H         1 <0>         0.1271
     48 H10        -1.9489   -1.5365    1.4644 H         1 <0>         0.1127
     49 H11        -1.8617    1.8307    7.0430 H         1 <0>         0.1720
     50 H12        -3.1191    3.9110    6.7987 H         1 <0>         0.1565
     51 H13        -3.8749    4.7337    4.6587 H         1 <0>         0.1589
     52 H14        -3.4731    3.5843    2.5654 H         1 <0>         0.1698
     53 H15        -0.3993   -0.0958    6.5702 H         1 <0>         0.1341
     54 H16        -0.9238   -1.5591    5.6889 H         1 <0>         0.1393
     55 H17         4.4938   -3.1249    4.2743 H         1 <0>         0.1361
     56 H18         5.6291   -5.3026    4.3438 H         1 <0>         0.1434
     57 H19         4.3265   -7.3764    4.5717 H         1 <0>         0.1428
     58 H20         1.8768   -7.2892    4.7306 H         1 <0>         0.1358
     59 H21         0.0574   -7.0785    4.8571 H         1 <0>         0.4028
     60 H22        -2.1379   -5.5754    5.8047 H         1 <0>         0.0699
     61 H23        -2.2649   -5.6981    4.0336 H         1 <0>         0.0676
     62 H24        -2.0615   -8.1937    4.2403 H         1 <0>         0.0788
     63 H25        -2.3411   -9.1988    6.4898 H         1 <0>         0.0636
     64 H26        -0.8537   -8.2247    6.4057 H         1 <0>         0.0532
     65 H27        -2.2974   -7.5762    7.2202 H         1 <0>         0.0590
     66 H28        -4.2818   -7.0977    4.1072 H         1 <0>         0.0573
     67 H29        -4.3430   -8.5407    5.1475 H         1 <0>         0.0653
     68 H30        -4.2993   -6.9181    5.8780 H         1 <0>         0.0586
     69 H31        -2.2409    1.2453    1.6029 H         1 <0>         0.4594
@<TRIPOS>BOND
     1    1    2 1
     2    1   42 1
     3    1   43 1
     4    1   44 1
     5    2    7 ar
     6    2    3 ar
     7    3    4 ar
     8    3   45 1
     9    4    5 ar
    10    4   46 1
    11    5    6 ar
    12    5   47 1
    13    6    7 ar
    14    6   48 1
    15    7    8 1
    16    8    9 1
    17    8   23 1
    18    8   10 1
    19   10   11 1
    20   10   19 1
    21   10   12 1
    22   12   13 2
    23   12   20 1
    24   13   18 ar
    25   13   14 ar
    26   14   15 ar
    27   14   49 1
    28   15   16 ar
    29   15   50 1
    30   16   17 ar
    31   16   51 1
    32   17   18 ar
    33   17   52 1
    34   18   19 2
    35   19   69 1
    36   20   21 1
    37   20   53 1
    38   20   54 1
    39   21   22 1
    40   21   27 1
    41   21   23 1
    42   23   24 am
    43   24   25 2
    44   24   26 am
    45   26   27 am
    46   26   29 1
    47   27   28 2
    48   29   34 ar
    49   29   30 ar
    50   30   31 ar
    51   30   55 1
    52   31   32 ar
    53   31   56 1
    54   32   33 ar
    55   32   57 1
    56   33   34 ar
    57   33   58 1
    58   34   35 1
    59   35   36 2
    60   35   37 am
    61   37   38 1
    62   37   59 1
    63   38   39 1
    64   38   60 1
    65   38   61 1
    66   39   40 1
    67   39   41 1
    68   39   62 1
    69   40   63 1
    70   40   64 1
    71   40   65 1
    72   41   66 1
    73   41   67 1
    74   41   68 1
@<TRIPOS>MOLECULE
ZINC00695236
   74    78     0     0     0
SMALL
USER_CHARGES
1-[[4-(5-benzyl-6-ethyl-2-methyl-pyrimidin-4-yl)piperazin-1-yl]sulfonylmethyl]-7,7-dimethyl-norbornan-2-one
@<TRIPOS>ATOM
      1 C1         -2.1462   -3.2268    1.9725 C.3       1 <0>        -0.1450
      2 C2         -0.6558   -2.8809    1.9631 C.3       1 <0>        -0.0842
      3 C3         -0.3634   -1.9501    0.8145 C.ar      1 <0>         0.1911
      4 C4         -0.3500   -0.5828    1.0090 C.ar      1 <0>        -0.1551
      5 C5         -0.0736    0.2395   -0.0851 C.ar      1 <0>         0.3487
      6 N1          0.1601   -0.3209   -1.2684 N.ar      1 <0>        -0.5485
      7 C6          0.1419   -1.6309   -1.4073 C.ar      1 <0>         0.3292
      8 N2         -0.1156   -2.4338   -0.3944 N.ar      1 <0>        -0.5167
      9 C7          0.4176   -2.2277   -2.7633 C.3       1 <0>        -0.0853
     10 N3         -0.0489    1.6172    0.0583 N.pl3     1 <0>        -0.4772
     11 C8         -1.2062    2.2361   -0.6019 C.3       1 <0>         0.0443
     12 C9         -1.2407    3.7314   -0.2688 C.3       1 <0>         0.1259
     13 N4          0.0619    4.3182   -0.6182 N.pl3     1 <0>        -1.0015
     14 C10         1.2777    3.6692   -0.1046 C.3       1 <0>         0.1244
     15 C11         1.2131    2.1763   -0.4442 C.3       1 <0>         0.0454
     16 S1          0.1571    5.6739   -1.5644 S.o2      1 <0>         2.5965
     17 O1         -1.0775    6.3469   -1.3589 O.2       1 <0>        -0.9496
     18 O2          1.3858    6.2863   -1.1979 O.2       1 <0>        -0.9165
     19 C12         0.2528    5.0497   -3.2650 C.3       1 <0>        -0.6026
     20 C13         0.3453    6.2282   -4.2363 C.3       1 <0>        -0.1128
     21 C14        -0.8725    7.2019   -4.2417 C.3       1 <0>        -0.1245
     22 C15        -0.7490    7.9414   -5.6158 C.3       1 <0>        -0.1238
     23 C16         0.5348    7.3448   -6.2707 C.3       1 <0>        -0.0894
     24 H1          0.6377    7.4933   -7.3456 H         1 <0>         0.1183
     25 C17         0.4584    5.8625   -5.7582 C.3       1 <0>        -0.0431
     26 C18         1.7450    5.0961   -6.0717 C.3       1 <0>        -0.1488
     27 C19        -0.7815    5.1238   -6.2661 C.3       1 <0>        -0.1391
     28 C20         1.7031    7.8827   -5.3886 C.3       1 <0>        -0.1684
     29 C21         1.5682    7.1407   -4.0669 C.2       1 <0>         0.3426
     30 O3          2.2732    7.2469   -3.0922 O.2       1 <0>        -0.3891
     31 C22        -0.6271    0.0069    2.3678 C.3       1 <0>        -0.0256
     32 C23         0.6764    0.2659    3.0784 C.ar      1 <0>        -0.0766
     33 C24         1.2159   -0.7003    3.9068 C.ar      1 <0>        -0.1206
     34 C25         2.4140   -0.4646    4.5547 C.ar      1 <0>        -0.1202
     35 C26         3.0676    0.7412    4.3822 C.ar      1 <0>        -0.1215
     36 C27         2.5252    1.7096    3.5583 C.ar      1 <0>        -0.1222
     37 C28         1.3297    1.4719    2.9062 C.ar      1 <0>        -0.1065
     38 H2         -2.3723   -3.8354    2.8480 H         1 <0>         0.0686
     39 H3         -2.7321   -2.3084    2.0072 H         1 <0>         0.0560
     40 H4         -2.3957   -3.7831    1.0690 H         1 <0>         0.0614
     41 H5         -0.0716   -3.7939    1.8486 H         1 <0>         0.0894
     42 H6         -0.3898   -2.3945    2.9016 H         1 <0>         0.0896
     43 H7         -0.5184   -2.3301   -3.3124 H         1 <0>         0.0852
     44 H8          1.0938   -1.5758   -3.3165 H         1 <0>         0.0834
     45 H9          0.8769   -3.2087   -2.6420 H         1 <0>         0.0866
     46 H10        -1.1221    2.1056   -1.6808 H         1 <0>         0.0557
     47 H11        -2.1224    1.7633   -0.2482 H         1 <0>         0.0902
     48 H12        -1.4285    3.8650    0.7966 H         1 <0>         0.0873
     49 H13        -2.0277    4.2170   -0.8458 H         1 <0>         0.0986
     50 H14         1.3320    3.7968    0.9766 H         1 <0>         0.0854
     51 H15         2.1577    4.1129   -0.5703 H         1 <0>         0.1004
     52 H16         2.0514    1.6602    0.0239 H         1 <0>         0.0892
     53 H17         1.2637    2.0463   -1.5252 H         1 <0>         0.0592
     54 H18         1.1365    4.4206   -3.3718 H         1 <0>         0.1347
     55 H19        -0.6391    4.4642   -3.4879 H         1 <0>         0.1376
     56 H20        -1.8063    6.6432   -4.1798 H         1 <0>         0.0916
     57 H21        -0.7967    7.9101   -3.4166 H         1 <0>         0.0761
     58 H22        -0.6316    9.0132   -5.4557 H         1 <0>         0.0746
     59 H23        -1.6212    7.7439   -6.2390 H         1 <0>         0.0801
     60 H24         1.7651    4.1698   -5.4975 H         1 <0>         0.0600
     61 H25         1.7797    4.8646   -7.1362 H         1 <0>         0.0684
     62 H26         2.6066    5.7079   -5.8046 H         1 <0>         0.0594
     63 H27        -1.6603    5.7547   -6.1329 H         1 <0>         0.0669
     64 H28        -0.6580    4.8913   -7.3238 H         1 <0>         0.0643
     65 H29        -0.9094    4.1991   -5.7033 H         1 <0>         0.0586
     66 H30         1.6090    8.8721   -5.2779 H         1 <0>         0.0934
     67 H31         2.6633    7.6585   -5.8531 H         1 <0>         0.1024
     68 H32        -1.1708    0.9446    2.2530 H         1 <0>         0.0948
     69 H33        -1.2266   -0.6915    2.9516 H         1 <0>         0.0836
     70 H34         0.7032   -1.6408    4.0448 H         1 <0>         0.1199
     71 H35         2.8376   -1.2211    5.1987 H         1 <0>         0.1204
     72 H36         4.0017    0.9268    4.8914 H         1 <0>         0.1196
     73 H37         3.0356    2.6519    3.4237 H         1 <0>         0.1211
     74 H38         0.9060    2.2285    2.2625 H         1 <0>         0.1341
@<TRIPOS>BOND
     1    1    2 1
     2    1   38 1
     3    1   39 1
     4    1   40 1
     5    2    3 1
     6    2   41 1
     7    2   42 1
     8    3    8 ar
     9    3    4 ar
    10    4    5 ar
    11    4   31 1
    12    5    6 ar
    13    5   10 1
    14    6    7 ar
    15    7    8 ar
    16    7    9 1
    17    9   43 1
    18    9   44 1
    19    9   45 1
    20   10   15 1
    21   10   11 1
    22   11   12 1
    23   11   46 1
    24   11   47 1
    25   12   13 1
    26   12   48 1
    27   12   49 1
    28   13   14 1
    29   13   16 1
    30   14   15 1
    31   14   50 1
    32   14   51 1
    33   15   52 1
    34   15   53 1
    35   16   17 2
    36   16   18 2
    37   16   19 1
    38   19   20 1
    39   19   54 1
    40   19   55 1
    41   20   25 1
    42   20   29 1
    43   20   21 1
    44   21   22 1
    45   21   56 1
    46   21   57 1
    47   22   23 1
    48   22   58 1
    49   22   59 1
    50   23   24 1
    51   23   25 1
    52   23   28 1
    53   25   26 1
    54   25   27 1
    55   26   60 1
    56   26   61 1
    57   26   62 1
    58   27   63 1
    59   27   64 1
    60   27   65 1
    61   28   29 1
    62   28   66 1
    63   28   67 1
    64   29   30 2
    65   31   32 1
    66   31   68 1
    67   31   69 1
    68   32   37 ar
    69   32   33 ar
    70   33   34 ar
    71   33   70 1
    72   34   35 ar
    73   34   71 1
    74   35   36 ar
    75   35   72 1
    76   36   37 ar
    77   36   73 1
    78   37   74 1
@<TRIPOS>MOLECULE
ZINC16531003
   65    69     0     0     0
SMALL
USER_CHARGES
N-[2-[(4R)-4-(o-tolyl)-6,7-dihydro-4H-thieno[3,2-c]pyridin-5-yl]-2-oxo-ethyl]-N-[[(2S)-tetrahydrofuran-2-yl]methyl]benzenesulfonamide
@<TRIPOS>ATOM
      1 C1         -0.8851    1.3245   -1.9279 C.3       1 <0>        -0.1168
      2 C2          0.1898    1.0001   -0.9227 C.ar      1 <0>        -0.0753
      3 C3          1.3792    1.7050   -0.9308 C.ar      1 <0>        -0.1126
      4 C4          2.3679    1.4026   -0.0135 C.ar      1 <0>        -0.1151
      5 C5          2.1665    0.3970    0.9136 C.ar      1 <0>        -0.1220
      6 C6          0.9773   -0.3073    0.9220 C.ar      1 <0>        -0.0648
      7 C7         -0.0111   -0.0058    0.0035 C.ar      1 <0>        -0.0417
      8 C8         -1.3078   -0.7737    0.0127 C.3       1 <0>         0.2456
      9 H1         -2.0034   -0.3317   -0.7007 H         1 <0>         0.0960
     10 C9         -1.9152   -0.7466    1.4141 C.2       1 <0>        -0.1270
     11 C10        -2.0409    0.4181    2.1696 C.2       1 <0>        -0.1381
     12 C11        -2.5948    0.3681    3.4027 C.2       1 <0>        -0.1713
     13 S1         -2.9748   -1.3698    3.5652 S.3       1 <0>         0.0464
     14 C12        -2.3675   -1.8964    1.9842 C.2       1 <0>        -0.1443
     15 C13        -2.3521   -3.2749    1.4082 C.3       1 <0>        -0.0579
     16 C14        -2.1137   -3.1730   -0.1063 C.3       1 <0>         0.1094
     17 N1         -1.0572   -2.1774   -0.3413 N.am      1 <0>        -0.6104
     18 C15         0.1245   -2.5475   -0.8734 C.2       1 <0>         0.4834
     19 O1          1.0215   -1.7383   -0.9801 O.2       1 <0>        -0.4795
     20 C16         0.3311   -3.9669   -1.3357 C.3       1 <0>         0.0935
     21 N2          1.6871   -4.1137   -1.8705 N.pl3     1 <0>        -0.9686
     22 C17         2.8049   -4.3942   -0.9660 C.3       1 <0>         0.1214
     23 C18         2.8964   -5.9015   -0.7204 C.3       1 <0>         0.0579
     24 H2          1.9375   -6.2767   -0.3629 H         1 <0>         0.0829
     25 C19         3.9975   -6.1966    0.3207 C.3       1 <0>        -0.1485
     26 C20         4.6498   -7.4870   -0.2462 C.3       1 <0>        -0.1573
     27 C21         4.5195   -7.2374   -1.7699 C.3       1 <0>         0.0530
     28 O2          3.2579   -6.5706   -1.9342 O.3       1 <0>        -0.3607
     29 S2          1.9562   -3.9628   -3.4975 S.o2      1 <0>         2.6900
     30 O3          3.1525   -4.6761   -3.7791 O.2       1 <0>        -0.9296
     31 O4          0.7244   -4.2567   -4.1420 O.2       1 <0>        -0.9622
     32 C22         2.2970   -2.2632   -3.8137 C.ar      1 <0>        -0.6629
     33 C23         1.2643   -1.3961   -4.1176 C.ar      1 <0>        -0.0066
     34 C24         1.5312   -0.0619   -4.3618 C.ar      1 <0>        -0.1315
     35 C25         2.8319    0.4034   -4.3106 C.ar      1 <0>        -0.0602
     36 C26         3.8652   -0.4647   -4.0113 C.ar      1 <0>        -0.1378
     37 C27         3.5978   -1.7981   -3.7633 C.ar      1 <0>        -0.0161
     38 H3         -1.6057    2.0095   -1.4810 H         1 <0>         0.0665
     39 H4         -0.4346    1.7916   -2.8036 H         1 <0>         0.0648
     40 H5         -1.3926    0.4071   -2.2261 H         1 <0>         0.0624
     41 H6          1.5362    2.4910   -1.6546 H         1 <0>         0.1119
     42 H7          3.2970    1.9532   -0.0198 H         1 <0>         0.1115
     43 H8          2.9384    0.1619    1.6315 H         1 <0>         0.1098
     44 H9          0.8200   -1.0929    1.6462 H         1 <0>         0.1028
     45 H10        -1.6963    1.3605    1.7702 H         1 <0>         0.1313
     46 H11        -2.7637    1.1703    4.1058 H         1 <0>         0.1870
     47 H12        -3.3098   -3.7603    1.5958 H         1 <0>         0.0964
     48 H13        -1.5517   -3.8561    1.8660 H         1 <0>         0.0889
     49 H14        -3.0319   -2.8585   -0.6025 H         1 <0>         0.0851
     50 H15        -1.7991   -4.1414   -0.4953 H         1 <0>         0.0999
     51 H16         0.1970   -4.6463   -0.4940 H         1 <0>         0.1125
     52 H17        -0.3941   -4.2048   -2.1138 H         1 <0>         0.1230
     53 H18         3.7333   -4.0423   -1.4159 H         1 <0>         0.0879
     54 H19         2.6429   -3.8808   -0.0183 H         1 <0>         0.0906
     55 H20         4.7207   -5.3822    0.3618 H         1 <0>         0.0799
     56 H21         3.5630   -6.3810    1.3032 H         1 <0>         0.0830
     57 H22         4.0928   -8.3740    0.0556 H         1 <0>         0.0779
     58 H23         5.6956   -7.5627    0.0514 H         1 <0>         0.0832
     59 H24         4.5201   -8.1843   -2.3098 H         1 <0>         0.0840
     60 H25         5.3321   -6.6016   -2.1215 H         1 <0>         0.0627
     61 H26         0.2485   -1.7604   -4.1614 H         1 <0>         0.1264
     62 H27         0.7239    0.6162   -4.5960 H         1 <0>         0.1250
     63 H28         3.0408    1.4451   -4.5047 H         1 <0>         0.1250
     64 H29         4.8814   -0.1013   -3.9716 H         1 <0>         0.1274
     65 H30         4.4052   -2.4764   -3.5298 H         1 <0>         0.1325
@<TRIPOS>BOND
     1    1    2 1
     2    1   38 1
     3    1   39 1
     4    1   40 1
     5    2    7 ar
     6    2    3 ar
     7    3    4 ar
     8    3   41 1
     9    4    5 ar
    10    4   42 1
    11    5    6 ar
    12    5   43 1
    13    6    7 ar
    14    6   44 1
    15    7    8 1
    16    8    9 1
    17    8   17 1
    18    8   10 1
    19   10   14 2
    20   10   11 1
    21   11   12 2
    22   11   45 1
    23   12   13 1
    24   12   46 1
    25   13   14 1
    26   14   15 1
    27   15   16 1
    28   15   47 1
    29   15   48 1
    30   16   17 1
    31   16   49 1
    32   16   50 1
    33   17   18 am
    34   18   19 2
    35   18   20 1
    36   20   21 1
    37   20   51 1
    38   20   52 1
    39   21   22 1
    40   21   29 1
    41   22   23 1
    42   22   53 1
    43   22   54 1
    44   23   24 1
    45   23   28 1
    46   23   25 1
    47   25   26 1
    48   25   55 1
    49   25   56 1
    50   26   27 1
    51   26   57 1
    52   26   58 1
    53   27   28 1
    54   27   59 1
    55   27   60 1
    56   29   30 2
    57   29   31 2
    58   29   32 1
    59   32   37 ar
    60   32   33 ar
    61   33   34 ar
    62   33   61 1
    63   34   35 ar
    64   34   62 1
    65   35   36 ar
    66   35   63 1
    67   36   37 ar
    68   36   64 1
    69   37   65 1
@<TRIPOS>MOLECULE
ZINC35867815
   67    72     0     0     0
SMALL
USER_CHARGES

@<TRIPOS>ATOM
      1 C1         -0.0562    1.5354   -0.0063 C.3       1 <0>        -0.1523
      2 C2         -0.0234    0.0058   -0.0076 C.3       1 <0>        -0.1120
      3 C3         -1.4546   -0.5350   -0.0002 C.3       1 <0>        -0.0185
      4 H1         -1.9982   -0.1127    0.8450 H         1 <0>         0.0982
      5 C4         -2.1544   -0.1440   -1.3034 C.3       1 <0>        -0.1430
      6 C5         -1.4236   -2.0367    0.1223 C.ar      1 <0>         0.3565
      7 N1         -2.0160   -2.6133    1.1529 N.ar      1 <0>        -0.5349
      8 C6         -2.0237   -3.9261    1.3178 C.ar      1 <0>         0.4824
      9 C7         -1.3734   -4.7483    0.3559 C.ar      1 <0>        -0.1900
     10 C8         -1.2512   -6.2069    0.3294 C.2       1 <0>        -0.0775
     11 C9         -0.5768   -6.7453   -0.7066 C.2       1 <0>        -0.1383
     12 S1         -0.0702   -5.3647   -1.6968 S.3       1 <0>         0.1031
     13 C10        -0.7655   -4.0620   -0.7143 C.ar      1 <0>         0.1248
     14 N2         -0.8101   -2.7469   -0.8044 N.ar      1 <0>        -0.4767
     15 C11        -0.3136   -8.1983   -0.9615 C.3       1 <0>        -0.0414
     16 C12        -0.6052   -8.9773    0.3290 C.3       1 <0>        -0.1147
     17 C13        -1.9604   -8.5241    0.8800 C.3       1 <0>        -0.1244
     18 C14        -1.8519   -7.0958    1.4150 C.3       1 <0>        -0.0626
     19 N3         -2.6551   -4.4915    2.4109 N.pl3     1 <0>        -0.6561
     20 C15        -1.8948   -4.8266    3.6231 C.3       1 <0>         0.1336
     21 C16        -2.5518   -4.1307    4.8216 C.3       1 <0>         0.1141
     22 N4         -3.9950   -4.4066    4.7917 N.pl3     1 <0>        -0.9852
     23 C17        -4.7552   -4.0715    3.5795 C.3       1 <0>         0.1022
     24 C18        -4.0993   -4.7623    2.3831 C.3       1 <0>         0.1370
     25 S2         -4.7509   -5.0836    6.1004 S.o2      1 <0>         2.7003
     26 O1         -5.9206   -5.7228    5.6081 O.2       1 <0>        -0.9616
     27 O2         -3.7514   -5.7815    6.8307 O.2       1 <0>        -0.9361
     28 C19        -5.2951   -3.7609    7.1295 C.ar      1 <0>        -0.6649
     29 C20        -6.6253   -3.5549    7.3309 C.ar      1 <0>         0.0223
     30 C21        -7.0773   -2.5152    8.1406 C.ar      1 <0>        -0.1478
     31 C22        -6.1988   -1.6748    8.7540 C.ar      1 <0>        -0.0335
     32 C23        -4.8192   -1.8578    8.5691 C.ar      1 <0>        -0.1251
     33 C24        -4.3570   -2.9180    7.7502 C.ar      1 <0>         0.2050
     34 N5         -3.0442   -3.0991    7.5744 N.ar      1 <0>        -0.4880
     35 C25        -2.1651   -2.3157    8.1505 C.ar      1 <0>         0.1601
     36 C26        -2.5520   -1.2589    8.9720 C.ar      1 <0>        -0.1812
     37 C27        -3.8782   -1.0110    9.1848 C.ar      1 <0>        -0.0416
     38 H2          0.9634    1.9207   -0.0116 H         1 <0>         0.0576
     39 H3         -0.5826    1.8883   -0.8931 H         1 <0>         0.0601
     40 H4         -0.5728    1.8870    0.8869 H         1 <0>         0.0550
     41 H5          0.4932   -0.3458   -0.9007 H         1 <0>         0.0744
     42 H6          0.5030   -0.3472    0.8792 H         1 <0>         0.0595
     43 H7         -1.6108   -0.5663   -2.1485 H         1 <0>         0.0673
     44 H8         -3.1740   -0.5293   -1.2981 H         1 <0>         0.0532
     45 H9         -2.1768    0.9421   -1.3920 H         1 <0>         0.0704
     46 H10        -0.9642   -8.5546   -1.7602 H         1 <0>         0.0882
     47 H11         0.7291   -8.3380   -1.2469 H         1 <0>         0.0860
     48 H12        -0.6371  -10.0451    0.1124 H         1 <0>         0.0767
     49 H13         0.1745   -8.7738    1.0631 H         1 <0>         0.0696
     50 H14        -2.7044   -8.5574    0.0840 H         1 <0>         0.0663
     51 H15        -2.2647   -9.1908    1.6867 H         1 <0>         0.0726
     52 H16        -1.2087   -7.0829    2.2948 H         1 <0>         0.0786
     53 H17        -2.8436   -6.7291    1.6799 H         1 <0>         0.0860
     54 H18        -1.9062   -5.9059    3.7754 H         1 <0>         0.0708
     55 H19        -0.8667   -4.4805    3.5175 H         1 <0>         0.0794
     56 H20        -2.1247   -4.5159    5.7475 H         1 <0>         0.1130
     57 H21        -2.3835   -3.0557    4.7577 H         1 <0>         0.0696
     58 H22        -5.7834   -4.4177    3.6851 H         1 <0>         0.0999
     59 H23        -4.7438   -2.9923    3.4272 H         1 <0>         0.0748
     60 H24        -4.5266   -4.3736    1.4587 H         1 <0>         0.0812
     61 H25        -4.2713   -5.8369    2.4451 H         1 <0>         0.0711
     62 H26        -7.3421   -4.2077    6.8550 H         1 <0>         0.1512
     63 H27        -8.1384   -2.3736    8.2834 H         1 <0>         0.1411
     64 H28        -6.5612   -0.8719    9.3789 H         1 <0>         0.1399
     65 H29        -1.1131   -2.4945    7.9843 H         1 <0>         0.1672
     66 H30        -1.8040   -0.6309    9.4331 H         1 <0>         0.1437
     67 H31        -4.1958   -0.1956    9.8178 H         1 <0>         0.1435
@<TRIPOS>BOND
     1    1    2 1
     2    1   38 1
     3    1   39 1
     4    1   40 1
     5    2    3 1
     6    2   41 1
     7    2   42 1
     8    3    4 1
     9    3    5 1
    10    3    6 1
    11    5   43 1
    12    5   44 1
    13    5   45 1
    14    6   14 ar
    15    6    7 ar
    16    7    8 ar
    17    8    9 ar
    18    8   19 1
    19    9   13 ar
    20    9   10 1
    21   10   18 1
    22   10   11 2
    23   11   12 1
    24   11   15 1
    25   12   13 1
    26   13   14 ar
    27   15   16 1
    28   15   46 1
    29   15   47 1
    30   16   17 1
    31   16   48 1
    32   16   49 1
    33   17   18 1
    34   17   50 1
    35   17   51 1
    36   18   52 1
    37   18   53 1
    38   19   24 1
    39   19   20 1
    40   20   21 1
    41   20   54 1
    42   20   55 1
    43   21   22 1
    44   21   56 1
    45   21   57 1
    46   22   23 1
    47   22   25 1
    48   23   24 1
    49   23   58 1
    50   23   59 1
    51   24   60 1
    52   24   61 1
    53   25   26 2
    54   25   27 2
    55   25   28 1
    56   28   33 ar
    57   28   29 ar
    58   29   30 ar
    59   29   62 1
    60   30   31 ar
    61   30   63 1
    62   31   32 ar
    63   31   64 1
    64   32   37 ar
    65   32   33 ar
    66   33   34 ar
    67   34   35 ar
    68   35   36 ar
    69   35   65 1
    70   36   37 ar
    71   36   66 1
    72   37   67 1
@<TRIPOS>MOLECULE
ZINC38649104
   65    69     0     0     0
SMALL
USER_CHARGES

@<TRIPOS>ATOM
      1 C1         -0.0187    1.5258    0.0104 C.3       1 <0>        -0.1523
      2 C2          0.0021   -0.0041    0.0020 C.3       1 <0>         0.0518
      3 O1          0.6709   -0.4649   -1.1737 O.3       1 <0>        -0.3013
      4 C3          0.7768   -1.8109   -1.3363 C.ar      1 <0>         0.1174
      5 C4          0.2435   -2.6690   -0.3879 C.ar      1 <0>        -0.1745
      6 C5          0.3516   -4.0370   -0.5549 C.ar      1 <0>        -0.0965
      7 C6          0.9916   -4.5523   -1.6668 C.ar      1 <0>        -0.1052
      8 C7          1.5263   -3.7019   -2.6164 C.ar      1 <0>        -0.1430
      9 C8          1.4160   -2.3297   -2.4582 C.ar      1 <0>         0.1077
     10 O2          1.9361   -1.4917   -3.3945 O.3       1 <0>        -0.3014
     11 C9          2.5780   -2.0947   -4.5199 C.3       1 <0>         0.0515
     12 C10         3.0962   -1.0022   -5.4574 C.3       1 <0>        -0.1518
     13 C11         1.1070   -6.0444   -1.8436 C.3       1 <0>         0.2339
     14 H1          1.9027   -6.2784   -2.5509 H         1 <0>         0.1259
     15 C12        -0.1903   -6.6084   -2.3226 C.2       1 <0>        -0.2434
     16 C13        -0.9685   -6.3450   -3.5376 C.2       1 <0>         0.4577
     17 O3         -0.5428   -5.6925   -4.4743 O.2       1 <0>        -0.4331
     18 C14        -2.3243   -6.9499   -3.5177 C.ar      1 <0>        -0.2136
     19 C15        -3.2560   -6.6284   -4.5045 C.ar      1 <0>        -0.0289
     20 C16        -4.5019   -7.1900   -4.4693 C.ar      1 <0>        -0.1076
     21 C17        -4.8404   -8.0762   -3.4562 C.ar      1 <0>        -0.0187
     22 C18        -3.9326   -8.4064   -2.4753 C.ar      1 <0>        -0.1341
     23 C19        -2.6540   -7.8489   -2.4903 C.ar      1 <0>         0.1401
     24 O4         -1.7750   -8.1946   -1.5224 O.3       1 <0>        -0.1803
     25 C20        -0.6270   -7.5020   -1.3865 C.2       1 <0>         0.0884
     26 C21         0.3549   -7.5381   -0.2884 C.2       1 <0>         0.5733
     27 O5          0.2625   -8.2308    0.7053 O.2       1 <0>        -0.4784
     28 N1          1.3733   -6.6903   -0.5478 N.am      1 <0>        -0.5835
     29 C22         2.5381   -6.4537    0.3086 C.3       1 <0>         0.1723
     30 H2          3.1999   -5.7269   -0.1626 H         1 <0>         0.1285
     31 C23         3.2934   -7.7739    0.5345 C.3       1 <0>        -0.1465
     32 C24         4.3218   -7.6045    1.6787 C.3       1 <0>        -0.5720
     33 S1          3.5595   -6.2905    2.7155 S.o2      1 <0>         2.3756
     34 O6          3.1422   -6.8590    3.9492 O.2       1 <0>        -0.9253
     35 O7          4.4124   -5.1540    2.7223 O.2       1 <0>        -0.9266
     36 C25         2.0723   -5.9197    1.6933 C.3       1 <0>        -0.6065
     37 C26        -6.2188   -8.6849   -3.4298 C.3       1 <0>        -0.1269
     38 C27        -5.5114   -6.8452   -5.5338 C.3       1 <0>        -0.1189
     39 H3          1.0039    1.9031    0.0027 H         1 <0>         0.0678
     40 H4         -0.5459    1.8868   -0.8726 H         1 <0>         0.0670
     41 H5         -0.5289    1.8773    0.9072 H         1 <0>         0.0795
     42 H6          0.5293   -0.3651    0.8851 H         1 <0>         0.0632
     43 H7         -1.0205   -0.3814    0.0098 H         1 <0>         0.0617
     44 H8         -0.2563   -2.2690    0.4819 H         1 <0>         0.1386
     45 H9         -0.0645   -4.7047    0.1850 H         1 <0>         0.1234
     46 H10         2.0261   -4.1070   -3.4839 H         1 <0>         0.1412
     47 H11         3.4131   -2.7058   -4.1775 H         1 <0>         0.0616
     48 H12         1.8634   -2.7219   -5.0528 H         1 <0>         0.0650
     49 H13         3.5858   -1.4622   -6.3157 H         1 <0>         0.0792
     50 H14         2.2611   -0.3911   -5.7998 H         1 <0>         0.0669
     51 H15         3.8108   -0.3750   -4.9244 H         1 <0>         0.0668
     52 H16        -2.9943   -5.9383   -5.2930 H         1 <0>         0.1451
     53 H17        -4.2108   -9.0974   -1.6933 H         1 <0>         0.1479
     54 H18         2.5827   -8.5566    0.7996 H         1 <0>         0.1044
     55 H19         3.8140   -8.0543   -0.3813 H         1 <0>         0.1052
     56 H20         4.4270   -8.5305    2.2440 H         1 <0>         0.1487
     57 H21         5.2852   -7.2777    1.2873 H         1 <0>         0.1448
     58 H22         1.8765   -4.8481    1.6569 H         1 <0>         0.1499
     59 H23         1.2003   -6.4657    2.0533 H         1 <0>         0.1539
     60 H24        -6.2159   -9.6156   -3.9972 H         1 <0>         0.0837
     61 H25        -6.5061   -8.8891   -2.3984 H         1 <0>         0.0755
     62 H26        -6.9313   -7.9903   -3.8748 H         1 <0>         0.0811
     63 H27        -5.4178   -7.5456   -6.3638 H         1 <0>         0.0769
     64 H28        -6.5161   -6.9090   -5.1161 H         1 <0>         0.0762
     65 H29        -5.3303   -5.8317   -5.8916 H         1 <0>         0.0713
@<TRIPOS>BOND
     1    1    2 1
     2    1   39 1
     3    1   40 1
     4    1   41 1
     5    2    3 1
     6    2   42 1
     7    2   43 1
     8    3    4 1
     9    4    9 ar
    10    4    5 ar
    11    5    6 ar
    12    5   44 1
    13    6    7 ar
    14    6   45 1
    15    7    8 ar
    16    7   13 1
    17    8    9 ar
    18    8   46 1
    19    9   10 1
    20   10   11 1
    21   11   12 1
    22   11   47 1
    23   11   48 1
    24   12   49 1
    25   12   50 1
    26   12   51 1
    27   13   14 1
    28   13   28 1
    29   13   15 1
    30   15   25 2
    31   15   16 1
    32   16   17 2
    33   16   18 1
    34   18   23 ar
    35   18   19 ar
    36   19   20 ar
    37   19   52 1
    38   20   21 ar
    39   20   38 1
    40   21   22 ar
    41   21   37 1
    42   22   23 ar
    43   22   53 1
    44   23   24 1
    45   24   25 1
    46   25   26 1
    47   26   27 2
    48   26   28 am
    49   28   29 1
    50   29   30 1
    51   29   36 1
    52   29   31 1
    53   31   32 1
    54   31   54 1
    55   31   55 1
    56   32   33 1
    57   32   56 1
    58   32   57 1
    59   33   34 2
    60   33   35 2
    61   33   36 1
    62   36   58 1
    63   36   59 1
    64   37   60 1
    65   37   61 1
    66   37   62 1
    67   38   63 1
    68   38   64 1
    69   38   65 1
@<TRIPOS>MOLECULE
ZINC40055929
   57    61     0     0     0
SMALL
USER_CHARGES

@<TRIPOS>ATOM
      1 C1         -0.0184    1.5028    0.0103 C.3       1 <0>        -0.1296
      2 C2          0.0021   -0.0041    0.0020 C.ar      1 <0>        -0.0065
      3 C3          0.0055   -0.6774   -1.1988 C.ar      1 <0>        -0.1240
      4 C4          0.0257   -2.0713   -1.2218 C.ar      1 <0>         0.1521
      5 C5          0.0467   -2.7665   -0.0013 C.ar      1 <0>        -0.2061
      6 C6          0.0392   -2.0747    1.2092 C.ar      1 <0>        -0.0143
      7 C7          0.0229   -0.6963    1.2057 C.ar      1 <0>        -0.0640
      8 Cl1         0.0218    0.1748    2.7074 Cl        1 <0>        -0.0414
      9 C8          0.0843   -4.2508   -0.0182 C.2       1 <0>         0.4617
     10 O1         -0.0641   -4.9333    0.9802 O.2       1 <0>        -0.4175
     11 C9          0.3165   -4.8169   -1.3505 C.2       1 <0>        -0.2238
     12 C10         0.2783   -4.0297   -2.4669 C.2       1 <0>         0.0939
     13 O2          0.0216   -2.7078   -2.4157 O.3       1 <0>        -0.1734
     14 C11         0.5560   -4.8765   -3.6390 C.2       1 <0>         0.5755
     15 O3          0.6004   -4.4821   -4.7876 O.2       1 <0>        -0.4437
     16 N1          0.7547   -6.1532   -3.2526 N.am      1 <0>        -0.4892
     17 C12         0.6175   -6.2128   -1.7881 C.3       1 <0>         0.2399
     18 H1         -0.2015   -6.8777   -1.5139 H         1 <0>         0.1394
     19 C13         1.9046   -6.6870   -1.1641 C.ar      1 <0>        -0.0981
     20 C14         3.1169   -6.2969   -1.7023 C.ar      1 <0>        -0.0949
     21 C15         4.3004   -6.7293   -1.1336 C.ar      1 <0>        -0.1702
     22 C16         4.2734   -7.5552   -0.0213 C.ar      1 <0>         0.1167
     23 C17         3.0532   -7.9476    0.5207 C.ar      1 <0>         0.1078
     24 C18         1.8707   -7.5067   -0.0514 C.ar      1 <0>        -0.1308
     25 O4          3.0216   -8.7581    1.6122 O.3       1 <0>        -0.3024
     26 C19         1.7336   -9.1202    2.1142 C.3       1 <0>         0.0229
     27 O5          5.4367   -7.9818    0.5391 O.3       1 <0>        -0.3021
     28 C20         6.6510   -7.5396   -0.0708 C.3       1 <0>         0.0247
     29 C21         1.0387   -7.2242   -4.0897 C.2       1 <0>         0.2932
     30 N2          1.2411   -8.5027   -3.8009 N.2       1 <0>        -0.2853
     31 N3          1.4914   -9.3553   -4.6960 N.2       1 <0>        -0.2502
     32 C22         1.5676   -9.0318   -5.9719 C.2       1 <0>         0.0667
     33 S1          1.2287   -7.2767   -5.8695 S.3       1 <0>         0.0429
     34 C23         1.8527   -9.8945   -7.1743 C.3       1 <0>         0.0032
     35 C24         3.2312  -10.5408   -7.0229 C.3       1 <0>        -0.1440
     36 C25         0.7866  -10.9865   -7.2828 C.3       1 <0>        -0.1442
     37 H2          1.0042    1.8801    0.0026 H         1 <0>         0.0897
     38 H3         -0.5455    1.8639   -0.8728 H         1 <0>         0.0827
     39 H4         -0.5286    1.8543    0.9071 H         1 <0>         0.0845
     40 H5         -0.0078   -0.1240   -2.1262 H         1 <0>         0.1591
     41 H6          0.0503   -2.6154    2.1440 H         1 <0>         0.1587
     42 H7          3.1393   -5.6531   -2.5692 H         1 <0>         0.1152
     43 H8          5.2460   -6.4236   -1.5564 H         1 <0>         0.1384
     44 H9          0.9224   -7.8067    0.3696 H         1 <0>         0.1434
     45 H10         1.1895   -8.2204    2.4016 H         1 <0>         0.0589
     46 H11         1.1775   -9.6493    1.3403 H         1 <0>         0.0573
     47 H12         1.8512   -9.7670    2.9837 H         1 <0>         0.1027
     48 H13         7.5015   -7.9510    0.4729 H         1 <0>         0.1035
     49 H14         6.6826   -7.8797   -1.1059 H         1 <0>         0.0557
     50 H15         6.6953   -6.4508   -0.0445 H         1 <0>         0.0557
     51 H16         1.8364   -9.2800   -8.0744 H         1 <0>         0.1009
     52 H17         3.2476  -11.1552   -6.1228 H         1 <0>         0.0698
     53 H18         3.4375  -11.1647   -7.8926 H         1 <0>         0.0749
     54 H19         3.9908   -9.7628   -6.9456 H         1 <0>         0.0594
     55 H20        -0.1955  -10.5260   -7.3906 H         1 <0>         0.0598
     56 H21         0.9928  -11.6104   -8.1525 H         1 <0>         0.0749
     57 H22         0.8030  -11.6010   -6.3827 H         1 <0>         0.0699
@<TRIPOS>BOND
     1    1    2 1
     2    1   37 1
     3    1   38 1
     4    1   39 1
     5    2    7 ar
     6    2    3 ar
     7    3    4 ar
     8    3   40 1
     9    4   13 1
    10    4    5 ar
    11    5    6 ar
    12    5    9 1
    13    6    7 ar
    14    6   41 1
    15    7    8 1
    16    9   10 2
    17    9   11 1
    18   11   17 1
    19   11   12 2
    20   12   13 1
    21   12   14 1
    22   14   15 2
    23   14   16 am
    24   16   17 1
    25   16   29 1
    26   17   18 1
    27   17   19 1
    28   19   24 ar
    29   19   20 ar
    30   20   21 ar
    31   20   42 1
    32   21   22 ar
    33   21   43 1
    34   22   23 ar
    35   22   27 1
    36   23   24 ar
    37   23   25 1
    38   24   44 1
    39   25   26 1
    40   26   45 1
    41   26   46 1
    42   26   47 1
    43   27   28 1
    44   28   48 1
    45   28   49 1
    46   28   50 1
    47   29   33 1
    48   29   30 2
    49   30   31 1
    50   31   32 2
    51   32   33 1
    52   32   34 1
    53   34   35 1
    54   34   36 1
    55   34   51 1
    56   35   52 1
    57   35   53 1
    58   35   54 1
    59   36   55 1
    60   36   56 1
    61   36   57 1
@<TRIPOS>MOLECULE
ZINC03248584
   48    51     0     0     0
SMALL
USER_CHARGES
1-[(3,5-dichlorophenyl)carbamoyl]ethyl 9,10,10-trioxothioxanthene-3-carboxylate
@<TRIPOS>ATOM
      1 C1          4.6792   12.0632   -1.2590 C.3       1 <0>        -0.1703
      2 C2          4.3808   11.1832   -2.4746 C.3       1 <0>         0.0750
      3 H1          3.4364   11.4914   -2.9231 H         1 <0>         0.1229
      4 C3          5.4888   11.3304   -3.4854 C.2       1 <0>         0.5204
      5 O1          6.1365   10.3613   -3.8206 O.2       1 <0>        -0.4880
      6 N1          5.7598   12.5388   -4.0170 N.am      1 <0>        -0.6650
      7 C4          6.8493   12.6946   -4.8812 C.ar      1 <0>         0.1705
      8 C5          7.5804   13.8751   -4.8728 C.ar      1 <0>        -0.1302
      9 C6          8.6597   14.0242   -5.7235 C.ar      1 <0>        -0.0049
     10 C7          9.0048   13.0027   -6.5909 C.ar      1 <0>        -0.1143
     11 C8          8.2744   11.8275   -6.6052 C.ar      1 <0>        -0.0048
     12 C9          7.1976   11.6711   -5.7526 C.ar      1 <0>        -0.1098
     13 Cl1         8.7109   10.5482   -7.6946 Cl        1 <0>        -0.0457
     14 Cl2         9.5783   15.4972   -5.7091 Cl        1 <0>        -0.0466
     15 O2          4.2881    9.7957   -2.0566 O.3       1 <0>        -0.3207
     16 C10         3.0720    9.3475   -1.6901 C.2       1 <0>         0.5137
     17 O3          2.1153   10.0950   -1.7188 O.2       1 <0>        -0.4857
     18 C11         2.9017    7.9447   -1.2526 C.ar      1 <0>        -0.1073
     19 C12         4.0002    7.0831   -1.2191 C.ar      1 <0>        -0.0146
     20 C13         3.8401    5.7792   -0.8107 C.ar      1 <0>        -0.0837
     21 C14         2.5771    5.3074   -0.4278 C.ar      1 <0>        -0.0388
     22 C15         1.4826    6.1702   -0.4644 C.ar      1 <0>        -0.6222
     23 C16         1.6430    7.4779   -0.8724 C.ar      1 <0>         0.0368
     24 S1         -0.1151    5.5995    0.0104 S.o2      1 <0>         2.5811
     25 O4         -0.3046    5.9993    1.3608 O.2       1 <0>        -0.9105
     26 O5         -1.0072    5.9782   -1.0288 O.2       1 <0>        -0.9120
     27 C17        -0.0589    3.8385    0.0087 C.ar      1 <0>        -0.6072
     28 C18        -1.2364    3.1181    0.0119 C.ar      1 <0>        -0.0266
     29 C19        -1.2078    1.7352    0.0030 C.ar      1 <0>        -0.0953
     30 C20         0.0037    1.0657    0.0025 C.ar      1 <0>        -0.0746
     31 C21         1.1857    1.7727    0.0003 C.ar      1 <0>        -0.0695
     32 C22         1.1669    3.1742    0.0039 C.ar      1 <0>        -0.0799
     33 C23         2.4406    3.9068    0.0057 C.2       1 <0>         0.4139
     34 O6          3.4371    3.3241    0.3857 O.2       1 <0>        -0.3999
     35 H2          4.7488   13.1047   -1.5728 H         1 <0>         0.0864
     36 H3          3.8779   11.9567   -0.5279 H         1 <0>         0.0833
     37 H4          5.6236   11.7549   -0.8104 H         1 <0>         0.0789
     38 H5          5.1997   13.3006   -3.8005 H         1 <0>         0.4190
     39 H6          7.3087   14.6743   -4.1991 H         1 <0>         0.1462
     40 H7          9.8455   13.1231   -7.2582 H         1 <0>         0.1482
     41 H8          6.6281   10.7536   -5.7639 H         1 <0>         0.1571
     42 H9          4.9758    7.4406   -1.5136 H         1 <0>         0.1633
     43 H10         4.6918    5.1156   -0.7858 H         1 <0>         0.1593
     44 H11         0.7921    8.1425   -0.8973 H         1 <0>         0.1622
     45 H12        -2.1839    3.6364    0.0171 H         1 <0>         0.1483
     46 H13        -2.1323    1.1769    0.0010 H         1 <0>         0.1475
     47 H14         0.0222   -0.0141   -0.0006 H         1 <0>         0.1459
     48 H15         2.1287    1.2463   -0.0039 H         1 <0>         0.1483
@<TRIPOS>BOND
     1    1    2 1
     2    1   35 1
     3    1   36 1
     4    1   37 1
     5    2    3 1
     6    2    4 1
     7    2   15 1
     8    4    5 2
     9    4    6 am
    10    6    7 1
    11    6   38 1
    12    7   12 ar
    13    7    8 ar
    14    8    9 ar
    15    8   39 1
    16    9   10 ar
    17    9   14 1
    18   10   11 ar
    19   10   40 1
    20   11   12 ar
    21   11   13 1
    22   12   41 1
    23   15   16 1
    24   16   17 2
    25   16   18 1
    26   18   23 ar
    27   18   19 ar
    28   19   20 ar
    29   19   42 1
    30   20   21 ar
    31   20   43 1
    32   21   33 1
    33   21   22 ar
    34   22   23 ar
    35   22   24 1
    36   23   44 1
    37   24   25 2
    38   24   26 2
    39   24   27 1
    40   27   32 ar
    41   27   28 ar
    42   28   29 ar
    43   28   45 1
    44   29   30 ar
    45   29   46 1
    46   30   31 ar
    47   30   47 1
    48   31   32 ar
    49   31   48 1
    50   32   33 1
    51   33   34 2
@<TRIPOS>MOLECULE
ZINC09947283
   63    67     0     0     0
SMALL
USER_CHARGES
2-(benzyl-oxo-BLAHyl)sulfanyl-N-(2,4,6-trimethylphenyl)-propanamide
@<TRIPOS>ATOM
      1 C1         -1.2671    1.9963   -0.1356 C.3       1 <0>        -0.1164
      2 C2          0.0484    1.2635   -0.0759 C.ar      1 <0>        -0.0756
      3 C3          1.1005    1.7924    0.6490 C.ar      1 <0>        -0.1181
      4 C4          2.3092    1.1261    0.7010 C.ar      1 <0>        -0.0585
      5 C5          2.4674   -0.0760    0.0239 C.ar      1 <0>         0.1208
      6 C6          1.4089   -0.6045   -0.7032 C.ar      1 <0>        -0.0814
      7 C7          0.2026    0.0665   -0.7509 C.ar      1 <0>        -0.1183
      8 C8          1.5760   -1.9089   -1.4391 C.3       1 <0>        -0.1129
      9 N1          3.6906   -0.7535    0.0746 N.am      1 <0>        -0.6649
     10 C9          4.8216   -0.1325   -0.3151 C.2       1 <0>         0.5399
     11 O1          4.7938    1.0398   -0.6251 O.2       1 <0>        -0.4999
     12 C10         6.1206   -0.8947   -0.3658 C.3       1 <0>        -0.1214
     13 H1          5.9395   -1.8958   -0.7571 H         1 <0>         0.1278
     14 C11         6.7075   -0.9965    1.0435 C.3       1 <0>        -0.1479
     15 S1          7.2899   -0.0255   -1.4464 S.3       1 <0>         0.0938
     16 C12         8.6836   -1.1012   -1.5191 C.2       1 <0>         0.2017
     17 N2          8.8000   -2.2540   -0.9063 N.2       1 <0>        -0.2814
     18 N3         10.0531   -2.7904   -1.2257 N.2       1 <0>        -0.3080
     19 C13        10.6701   -1.9439   -2.0195 C.2       1 <0>         0.4646
     20 N4          9.8374   -0.8771   -2.2208 N.pl3     1 <0>        -0.4411
     21 C14        10.2321    0.1869   -3.0290 C.ar      1 <0>         0.1655
     22 C15         9.3953    1.2723   -3.2395 C.ar      1 <0>        -0.1352
     23 C16         9.8105    2.3138   -4.0455 C.ar      1 <0>        -0.0489
     24 C17        11.0588    2.2851   -4.6472 C.ar      1 <0>        -0.1285
     25 C18        11.9041    1.2137   -4.4486 C.ar      1 <0>        -0.0215
     26 C19        11.4959    0.1560   -3.6378 C.ar      1 <0>        -0.1605
     27 C20        12.3691   -1.0080   -3.4006 C.2       1 <0>         0.5709
     28 O2         13.4713   -1.0690   -3.9115 O.2       1 <0>        -0.4851
     29 N5         11.9246   -2.0037   -2.6071 N.am      1 <0>        -0.5064
     30 C21        12.7805   -3.1672   -2.3623 C.3       1 <0>         0.1538
     31 C22        12.5130   -4.2169   -3.4099 C.ar      1 <0>        -0.1242
     32 C23        11.5454   -5.1799   -3.1923 C.ar      1 <0>        -0.0912
     33 C24        11.2966   -6.1398   -4.1553 C.ar      1 <0>        -0.1257
     34 C25        12.0227   -6.1432   -5.3316 C.ar      1 <0>        -0.1073
     35 C26        12.9940   -5.1834   -5.5470 C.ar      1 <0>        -0.1262
     36 C27        13.2391   -4.2203   -4.5862 C.ar      1 <0>        -0.0924
     37 C28         3.4551    1.7030    1.4917 C.3       1 <0>        -0.1091
     38 H2         -1.9063    1.6624    0.6817 H         1 <0>         0.0723
     39 H3         -1.0905    3.0680   -0.0443 H         1 <0>         0.0678
     40 H4         -1.7559    1.7884   -1.0874 H         1 <0>         0.0676
     41 H5          0.9771    2.7276    1.1748 H         1 <0>         0.1260
     42 H6         -0.6210   -0.3440   -1.3162 H         1 <0>         0.1266
     43 H7          1.9334   -1.7126   -2.4500 H         1 <0>         0.0728
     44 H8          2.2986   -2.5328   -0.9131 H         1 <0>         0.0625
     45 H9          0.6170   -2.4248   -1.4866 H         1 <0>         0.0712
     46 H10         3.7247   -1.6701    0.3902 H         1 <0>         0.4108
     47 H11         6.8886    0.0046    1.4349 H         1 <0>         0.0756
     48 H12         6.0048   -1.5187    1.6929 H         1 <0>         0.0762
     49 H13         7.6471   -1.5477    1.0069 H         1 <0>         0.0886
     50 H14         8.4210    1.3028   -2.7745 H         1 <0>         0.1440
     51 H15         9.1571    3.1582   -4.2081 H         1 <0>         0.1478
     52 H16        11.3714    3.1066   -5.2747 H         1 <0>         0.1467
     53 H17        12.8762    1.1941   -4.9188 H         1 <0>         0.1537
     54 H18        13.8267   -2.8650   -2.4096 H         1 <0>         0.1137
     55 H19        12.5647   -3.5758   -1.3751 H         1 <0>         0.1089
     56 H20        10.9811   -5.1799   -2.2714 H         1 <0>         0.1300
     57 H21        10.5381   -6.8899   -3.9868 H         1 <0>         0.1242
     58 H22        11.8315   -6.8959   -6.0821 H         1 <0>         0.1235
     59 H23        13.5615   -5.1863   -6.4659 H         1 <0>         0.1245
     60 H24        13.9982   -3.4707   -4.7544 H         1 <0>         0.1291
     61 H25         3.9756    2.4462    0.8877 H         1 <0>         0.0855
     62 H26         3.0713    2.1743    2.3965 H         1 <0>         0.0627
     63 H27         4.1472    0.9057    1.7628 H         1 <0>         0.0565
@<TRIPOS>BOND
     1    1    2 1
     2    1   38 1
     3    1   39 1
     4    1   40 1
     5    2    7 ar
     6    2    3 ar
     7    3    4 ar
     8    3   41 1
     9    4    5 ar
    10    4   37 1
    11    5    6 ar
    12    5    9 1
    13    6    7 ar
    14    6    8 1
    15    7   42 1
    16    8   43 1
    17    8   44 1
    18    8   45 1
    19    9   10 am
    20    9   46 1
    21   10   11 2
    22   10   12 1
    23   12   13 1
    24   12   14 1
    25   12   15 1
    26   14   47 1
    27   14   48 1
    28   14   49 1
    29   15   16 1
    30   16   20 1
    31   16   17 2
    32   17   18 1
    33   18   19 2
    34   19   29 1
    35   19   20 1
    36   20   21 1
    37   21   26 ar
    38   21   22 ar
    39   22   23 ar
    40   22   50 1
    41   23   24 ar
    42   23   51 1
    43   24   25 ar
    44   24   52 1
    45   25   26 ar
    46   25   53 1
    47   26   27 1
    48   27   28 2
    49   27   29 am
    50   29   30 1
    51   30   31 1
    52   30   54 1
    53   30   55 1
    54   31   36 ar
    55   31   32 ar
    56   32   33 ar
    57   32   56 1
    58   33   34 ar
    59   33   57 1
    60   34   35 ar
    61   34   58 1
    62   35   36 ar
    63   35   59 1
    64   36   60 1
    65   37   61 1
    66   37   62 1
    67   37   63 1
@<TRIPOS>MOLECULE
ZINC20532557
   69    71     0     0     0
SMALL
USER_CHARGES
(2R)-1-(3-chloro-2-methyl-phenyl)-N-cyclooctyl-2-methyl-6-oxo-4-propylsulfonyl-piperazine-2-carboxamide
@<TRIPOS>ATOM
      1 C1          3.4781    2.4203   -4.6234 C.3       1 <0>        -0.1473
      2 C2          2.6273    3.1532   -3.5842 C.3       1 <0>        -0.1202
      3 C3          1.6740    2.1614   -2.9144 C.3       1 <0>        -0.6267
      4 S1          0.6653    3.0303   -1.6823 S.o2      1 <0>         2.5995
      5 O1         -0.2235    3.9331   -2.3260 O.2       1 <0>        -0.9424
      6 O2          1.4788    3.4625   -0.6004 O.2       1 <0>        -0.9382
      7 N1         -0.3143    1.8628   -1.0344 N.pl3     1 <0>        -1.0043
      8 C4         -1.6324    1.5624   -1.6130 C.3       1 <0>         0.1028
      9 C5         -2.6262    1.3894   -0.4969 C.2       1 <0>         0.5195
     10 O3         -3.8073    1.3685   -0.7720 O.2       1 <0>        -0.5112
     11 N2         -2.2682    1.2575    0.7812 N.am      1 <0>        -0.5468
     12 C6         -0.8990    1.3533    1.2715 C.3       1 <0>         0.1467
     13 C7          0.0995    1.0829    0.1443 C.3       1 <0>         0.1156
     14 C8         -0.6605    2.7579    1.8293 C.3       1 <0>        -0.1551
     15 C9         -0.6925    0.3426    2.3701 C.2       1 <0>         0.5208
     16 O4         -0.2018    0.6853    3.4249 O.2       1 <0>        -0.5101
     17 N3         -1.0531   -0.9421    2.1804 N.am      1 <0>        -0.7334
     18 C10        -0.9820   -1.8945    3.2912 C.3       1 <0>         0.1273
     19 C11         0.4365   -2.4603    3.3879 C.3       1 <0>        -0.1265
     20 C12         0.6265   -3.1295    4.7505 C.3       1 <0>        -0.1242
     21 C13         0.0364   -2.2377    5.8445 C.3       1 <0>        -0.1339
     22 C14        -1.1821   -2.9268    6.4622 C.3       1 <0>        -0.1209
     23 C15        -2.3703   -2.8139    5.5049 C.3       1 <0>        -0.1317
     24 C16        -2.1932   -3.8045    4.3526 C.3       1 <0>        -0.1245
     25 C17        -1.9711   -3.0364    3.0482 C.3       1 <0>        -0.1331
     26 C18        -3.2782    1.0101    1.7174 C.ar      1 <0>         0.1279
     27 C19        -3.5472   -0.2908    2.1234 C.ar      1 <0>        -0.1011
     28 C20        -4.5442   -0.5324    3.0479 C.ar      1 <0>        -0.1108
     29 C21        -5.2751    0.5191    3.5699 C.ar      1 <0>        -0.0936
     30 C22        -5.0101    1.8164    3.1678 C.ar      1 <0>        -0.0343
     31 C23        -4.0096    2.0648    2.2466 C.ar      1 <0>        -0.0483
     32 C24        -3.7172    3.4781    1.8131 C.3       1 <0>        -0.1411
     33 Cl1        -5.9296    3.1335    3.8261 Cl        1 <0>        -0.0589
     34 H1          4.1635    3.1333   -5.1050 H         1 <0>         0.0658
     35 H2          2.8221    1.9716   -5.3838 H         1 <0>         0.0604
     36 H3          4.0604    1.6291   -4.1285 H         1 <0>         0.0602
     37 H4          3.2833    3.6019   -2.8237 H         1 <0>         0.0814
     38 H5          2.0450    3.9444   -4.0791 H         1 <0>         0.0811
     39 H6          1.0180    1.7127   -3.6749 H         1 <0>         0.1362
     40 H7          2.2563    1.3702   -2.4196 H         1 <0>         0.1357
     41 H8         -1.9448    2.3923   -2.2639 H         1 <0>         0.1388
     42 H9         -1.5712    0.6363   -2.2034 H         1 <0>         0.1149
     43 H10         0.1041    0.0122   -0.1077 H         1 <0>         0.0914
     44 H11         1.1095    1.3915    0.4520 H         1 <0>         0.1250
     45 H12         0.3721    2.8345    2.2006 H         1 <0>         0.0910
     46 H13        -1.3621    2.9486    2.6548 H         1 <0>         0.0781
     47 H14        -0.8201    3.5004    1.0335 H         1 <0>         0.0674
     48 H15        -1.4008   -1.2755    1.1915 H         1 <0>         0.4151
     49 H16        -1.2431   -1.3442    4.2072 H         1 <0>         0.1157
     50 H17         0.5905   -3.2020    2.5903 H         1 <0>         0.0629
     51 H18         1.1653   -1.6441    3.2753 H         1 <0>         0.0672
     52 H19         0.1143   -4.1029    4.7555 H         1 <0>         0.0741
     53 H20         1.6998   -3.2790    4.9391 H         1 <0>         0.0608
     54 H21         0.7933   -2.0636    6.6235 H         1 <0>         0.0592
     55 H22        -0.2687   -1.2752    5.4081 H         1 <0>         0.0787
     56 H23        -0.9527   -3.9880    6.6390 H         1 <0>         0.0639
     57 H24        -1.4327   -2.4418    7.4172 H         1 <0>         0.0602
     58 H25        -3.3001   -3.0434    6.0459 H         1 <0>         0.0613
     59 H26        -2.4223   -1.7909    5.1041 H         1 <0>         0.0715
     60 H27        -1.3230   -4.4472    4.5520 H         1 <0>         0.0780
     61 H28        -3.0956   -4.4269    4.2621 H         1 <0>         0.0651
     62 H29        -2.9287   -2.6237    2.6979 H         1 <0>         0.0722
     63 H30        -1.5647   -3.7176    2.2861 H         1 <0>         0.0700
     64 H31        -2.9767   -1.1127    1.7166 H         1 <0>         0.1411
     65 H32        -4.7531   -1.5438    3.3639 H         1 <0>         0.1362
     66 H33        -6.0545    0.3273    4.2925 H         1 <0>         0.1365
     67 H34        -4.3936    4.1696    2.3368 H         1 <0>         0.0786
     68 H35        -3.8700    3.5676    0.7274 H         1 <0>         0.0769
     69 H36        -2.6746    3.7286    2.0586 H         1 <0>         0.0857
@<TRIPOS>BOND
     1    1    2 1
     2    1   34 1
     3    1   35 1
     4    1   36 1
     5    2    3 1
     6    2   37 1
     7    2   38 1
     8    3    4 1
     9    3   39 1
    10    3   40 1
    11    4    5 2
    12    4    6 2
    13    4    7 1
    14    7   13 1
    15    7    8 1
    16    8    9 1
    17    8   41 1
    18    8   42 1
    19    9   10 2
    20    9   11 am
    21   11   12 1
    22   11   26 1
    23   12   13 1
    24   12   14 1
    25   12   15 1
    26   13   43 1
    27   13   44 1
    28   14   45 1
    29   14   46 1
    30   14   47 1
    31   15   16 2
    32   15   17 am
    33   17   18 1
    34   17   48 1
    35   18   25 1
    36   18   19 1
    37   18   49 1
    38   19   20 1
    39   19   50 1
    40   19   51 1
    41   20   21 1
    42   20   52 1
    43   20   53 1
    44   21   22 1
    45   21   54 1
    46   21   55 1
    47   22   23 1
    48   22   56 1
    49   22   57 1
    50   23   24 1
    51   23   58 1
    52   23   59 1
    53   24   25 1
    54   24   60 1
    55   24   61 1
    56   25   62 1
    57   25   63 1
    58   26   31 ar
    59   26   27 ar
    60   27   28 ar
    61   27   64 1
    62   28   29 ar
    63   28   65 1
    64   29   30 ar
    65   29   66 1
    66   30   31 ar
    67   30   33 1
    68   31   32 1
    69   32   67 1
    70   32   68 1
    71   32   69 1
@<TRIPOS>MOLECULE
ZINC34789010
   68    72     0     0     0
SMALL
USER_CHARGES

@<TRIPOS>ATOM
      1 C1         -0.0166    1.5028    0.0084 C.3       1 <0>        -0.1179
      2 C2          0.0033   -0.0040    0.0006 C.ar      1 <0>        -0.0681
      3 C3          1.2059   -0.6776   -0.1103 C.ar      1 <0>        -0.1115
      4 C4          1.2274   -2.0586   -0.1178 C.ar      1 <0>        -0.0867
      5 C5          0.0401   -2.7705   -0.0132 C.ar      1 <0>         0.1187
      6 C6         -1.1657   -2.0914    0.0985 C.ar      1 <0>        -0.0853
      7 C7         -1.1804   -0.7104    0.1102 C.ar      1 <0>        -0.1110
      8 N1          0.0586   -4.1718   -0.0209 N.am      1 <0>        -0.5069
      9 C8          0.1704   -4.8314    1.1456 C.2       1 <0>         0.5775
     10 O1          0.2536   -4.2180    2.1939 O.2       1 <0>        -0.4835
     11 C9          0.1905   -6.3102    1.1409 C.2       1 <0>        -0.2498
     12 C10         0.3037   -7.2260    2.2721 C.2       1 <0>        -0.0102
     13 C11         0.2937   -8.5363    1.9469 C.2       1 <0>        -0.2566
     14 S1          0.1370   -8.5599    0.1876 S.3       1 <0>         0.2774
     15 C12         0.0882   -6.9157   -0.1115 C.2       1 <0>         0.0560
     16 N2         -0.0233   -6.1652   -1.2534 N.am      1 <0>        -0.4781
     17 C13        -0.0412   -4.8205   -1.1926 C.2       1 <0>         0.7165
     18 O2         -0.1453   -4.1795   -2.2207 O.2       1 <0>        -0.5155
     19 C14        -0.1282   -6.8336   -2.5528 C.3       1 <0>         0.0876
     20 C15        -1.5794   -7.0833   -2.8736 C.2       1 <0>         0.5018
     21 O3         -2.4411   -6.7369   -2.0937 O.2       1 <0>        -0.5180
     22 N3         -1.9195   -7.6914   -4.0273 N.am      1 <0>        -0.7156
     23 C16        -3.3302   -7.9340   -4.3392 C.3       1 <0>         0.1500
     24 H1         -3.8716   -8.1606   -3.4207 H         1 <0>         0.0919
     25 C17        -3.9305   -6.6865   -4.9905 C.3       1 <0>        -0.1658
     26 C18        -3.4433   -9.1170   -5.3028 C.3       1 <0>        -0.0904
     27 C19        -2.9652  -10.3709   -4.6172 C.ar      1 <0>        -0.0833
     28 C20        -1.6327  -10.7320   -4.6876 C.ar      1 <0>        -0.1178
     29 C21        -1.1941  -11.8822   -4.0587 C.ar      1 <0>        -0.1171
     30 C22        -2.0879  -12.6711   -3.3590 C.ar      1 <0>        -0.1219
     31 C23        -3.4203  -12.3096   -3.2878 C.ar      1 <0>        -0.1150
     32 C24        -3.8580  -11.1571   -3.9131 C.ar      1 <0>        -0.1152
     33 C25         0.3976   -9.6811    2.9057 C.3       1 <0>         0.1516
     34 O4          0.8308   -9.1555    4.1710 O.3       1 <0>        -0.3577
     35 C26         0.0877   -8.0128    4.6036 C.3       1 <0>         0.1099
     36 C27         0.4251   -6.8003    3.7288 C.3       1 <0>        -0.0787
     37 C28         0.4391   -7.7011    6.0597 C.3       1 <0>        -0.1388
     38 C29        -1.4091   -8.3122    4.4994 C.3       1 <0>        -0.1825
     39 H2          0.0756    1.8621    1.0334 H         1 <0>         0.0755
     40 H3          0.8159    1.8803   -0.5852 H         1 <0>         0.0701
     41 H4         -0.9559    1.8559   -0.4172 H         1 <0>         0.0699
     42 H5          2.1292   -0.1232   -0.1916 H         1 <0>         0.1326
     43 H6          2.1669   -2.5841   -0.2052 H         1 <0>         0.1247
     44 H7         -2.0910   -2.6425    0.1797 H         1 <0>         0.1246
     45 H8         -2.1177   -0.1816    0.2013 H         1 <0>         0.1324
     46 H9          0.3106   -6.2002   -3.3237 H         1 <0>         0.1405
     47 H10         0.4046   -7.7839   -2.5167 H         1 <0>         0.1244
     48 H11        -1.2303   -7.9684   -4.6511 H         1 <0>         0.4008
     49 H12        -3.8499   -5.8437   -4.3040 H         1 <0>         0.0630
     50 H13        -3.3890   -6.4599   -5.9090 H         1 <0>         0.0603
     51 H14        -4.9801   -6.8670   -5.2226 H         1 <0>         0.0693
     52 H15        -4.4833   -9.2418   -5.6044 H         1 <0>         0.0922
     53 H16        -2.8297   -8.9280   -6.1837 H         1 <0>         0.0811
     54 H17        -0.9344  -10.1157   -5.2343 H         1 <0>         0.1175
     55 H18        -0.1532  -12.1647   -4.1143 H         1 <0>         0.1222
     56 H19        -1.7454  -13.5701   -2.8682 H         1 <0>         0.1216
     57 H20        -4.1187  -12.9261   -2.7414 H         1 <0>         0.1220
     58 H21        -4.8983  -10.8726   -3.8544 H         1 <0>         0.1211
     59 H22        -0.5760  -10.1583    3.0179 H         1 <0>         0.0790
     60 H23         1.1245  -10.4056    2.5385 H         1 <0>         0.1125
     61 H24         1.4437   -6.4706    3.9330 H         1 <0>         0.0935
     62 H25        -0.2740   -5.9900    3.9357 H         1 <0>         0.0985
     63 H26         1.5062   -7.4934    6.1395 H         1 <0>         0.0667
     64 H27        -0.1263   -6.8303    6.3915 H         1 <0>         0.0747
     65 H28         0.1879   -8.5575    6.6855 H         1 <0>         0.0679
     66 H29        -1.6537   -9.1664    5.1308 H         1 <0>         0.0684
     67 H30        -1.9774   -7.4424    4.8287 H         1 <0>         0.0703
     68 H31        -1.6626   -8.5412    3.4643 H         1 <0>         0.0629
@<TRIPOS>BOND
     1    1    2 1
     2    1   39 1
     3    1   40 1
     4    1   41 1
     5    2    7 ar
     6    2    3 ar
     7    3    4 ar
     8    3   42 1
     9    4    5 ar
    10    4   43 1
    11    5    6 ar
    12    5    8 1
    13    6    7 ar
    14    6   44 1
    15    7   45 1
    16    8   17 am
    17    8    9 am
    18    9   10 2
    19    9   11 1
    20   11   15 2
    21   11   12 1
    22   12   36 1
    23   12   13 2
    24   13   14 1
    25   13   33 1
    26   14   15 1
    27   15   16 1
    28   16   17 am
    29   16   19 1
    30   17   18 2
    31   19   20 1
    32   19   46 1
    33   19   47 1
    34   20   21 2
    35   20   22 am
    36   22   23 1
    37   22   48 1
    38   23   24 1
    39   23   25 1
    40   23   26 1
    41   25   49 1
    42   25   50 1
    43   25   51 1
    44   26   27 1
    45   26   52 1
    46   26   53 1
    47   27   32 ar
    48   27   28 ar
    49   28   29 ar
    50   28   54 1
    51   29   30 ar
    52   29   55 1
    53   30   31 ar
    54   30   56 1
    55   31   32 ar
    56   31   57 1
    57   32   58 1
    58   33   34 1
    59   33   59 1
    60   33   60 1
    61   34   35 1
    62   35   36 1
    63   35   37 1
    64   35   38 1
    65   36   61 1
    66   36   62 1
    67   37   63 1
    68   37   64 1
    69   37   65 1
    70   38   66 1
    71   38   67 1
    72   38   68 1
@<TRIPOS>MOLECULE
ZINC10058512
   56    59     0     0     0
SMALL
USER_CHARGES

@<TRIPOS>ATOM
      1 C1         -0.0103    1.5441   -0.0071 C.3       1 <0>        -0.1484
      2 C2          0.0030    0.0142   -0.0054 C.3       1 <0>        -0.1224
      3 H1          0.5269   -0.3436    0.8809 H         1 <0>         0.1317
      4 C3          0.7080   -0.4834   -1.2408 C.2       1 <0>         0.5477
      5 O1          0.0671   -0.7785   -2.2274 O.2       1 <0>        -0.4951
      6 N1          2.0506   -0.6005   -1.2495 N.am      1 <0>        -0.6589
      7 C4          2.6989   -1.1506   -2.3636 C.ar      1 <0>         0.1321
      8 C5          2.1996   -0.9260   -3.6392 C.ar      1 <0>        -0.0742
      9 C6          2.8388   -1.4690   -4.7371 C.ar      1 <0>        -0.1114
     10 C7          3.9779   -2.2373   -4.5678 C.ar      1 <0>         0.0885
     11 C8          4.4802   -2.4644   -3.2957 C.ar      1 <0>         0.0545
     12 C9          3.8457   -1.9171   -2.1932 C.ar      1 <0>         0.0728
     13 F1          4.3374   -2.1325   -0.9534 F         1 <0>        -0.1143
     14 F2          5.5915   -3.2151   -3.1322 F         1 <0>        -0.1107
     15 F3          4.6006   -2.7668   -5.6434 F         1 <0>        -0.1157
     16 S1         -1.7019   -0.6052    0.0088 S.3       1 <0>         0.0957
     17 C10        -2.3371   -0.0699    1.5627 C.2       1 <0>         0.2006
     18 N2         -1.6848    0.6226    2.4644 N.2       1 <0>        -0.2800
     19 N3         -2.5434    0.8407    3.5484 N.2       1 <0>        -0.3054
     20 C11        -3.6975    0.2738    3.2765 C.2       1 <0>         0.4643
     21 N4         -3.6002   -0.2990    2.0378 N.pl3     1 <0>        -0.4412
     22 C12        -4.6857   -0.9729    1.4819 C.ar      1 <0>         0.1646
     23 C13        -4.5962   -1.5604    0.2292 C.ar      1 <0>        -0.1350
     24 C14        -5.6868   -2.2228   -0.2986 C.ar      1 <0>        -0.0487
     25 C15        -6.8733   -2.3060    0.4130 C.ar      1 <0>        -0.1277
     26 C16        -6.9801   -1.7275    1.6603 C.ar      1 <0>        -0.0213
     27 C17        -5.8859   -1.0566    2.2038 C.ar      1 <0>        -0.1604
     28 C18        -5.9592   -0.4252    3.5341 C.2       1 <0>         0.5687
     29 O2         -6.9831   -0.4779    4.1886 O.2       1 <0>        -0.4846
     30 N5         -4.8679    0.2035    4.0167 N.am      1 <0>        -0.5102
     31 C19        -4.9258    0.8378    5.3360 C.3       1 <0>         0.1087
     32 C20        -5.4045    2.2832    5.1865 C.3       1 <0>        -0.1301
     33 C21        -5.4650    2.9456    6.5643 C.3       1 <0>        -0.0910
     34 C22        -4.0529    3.0449    7.1449 C.3       1 <0>        -0.1518
     35 C23        -6.0611    4.3483    6.4302 C.3       1 <0>        -0.1471
     36 H2          1.0142    1.9164   -0.0156 H         1 <0>         0.0783
     37 H3         -0.5342    1.9020   -0.8934 H         1 <0>         0.0784
     38 H4         -0.5202    1.9041    0.8866 H         1 <0>         0.0912
     39 H5          2.5683   -0.3040   -0.4846 H         1 <0>         0.4226
     40 H6          1.3111   -0.3269   -3.7734 H         1 <0>         0.1694
     41 H7          2.4490   -1.2941   -5.7290 H         1 <0>         0.1620
     42 H8         -3.6758   -1.4998   -0.3326 H         1 <0>         0.1432
     43 H9         -5.6148   -2.6797   -1.2745 H         1 <0>         0.1482
     44 H10        -7.7189   -2.8265   -0.0117 H         1 <0>         0.1471
     45 H11        -7.9058   -1.7939    2.2126 H         1 <0>         0.1540
     46 H12        -5.6199    0.2892    5.9728 H         1 <0>         0.1047
     47 H13        -3.9337    0.8285    5.7875 H         1 <0>         0.1031
     48 H14        -4.7105    2.8318    4.5498 H         1 <0>         0.0704
     49 H15        -6.3966    2.2925    4.7350 H         1 <0>         0.0695
     50 H16        -6.0894    2.3474    7.2280 H         1 <0>         0.0745
     51 H17        -4.0959    3.5168    8.1265 H         1 <0>         0.0571
     52 H18        -3.6282    2.0456    7.2404 H         1 <0>         0.0563
     53 H19        -3.4285    3.6431    6.4812 H         1 <0>         0.0580
     54 H20        -7.0671    4.2776    6.0166 H         1 <0>         0.0547
     55 H21        -6.1041    4.8202    7.4118 H         1 <0>         0.0584
     56 H22        -5.4366    4.9465    5.7666 H         1 <0>         0.0549
@<TRIPOS>BOND
     1    1    2 1
     2    1   36 1
     3    1   37 1
     4    1   38 1
     5    2    3 1
     6    2    4 1
     7    2   16 1
     8    4    5 2
     9    4    6 am
    10    6    7 1
    11    6   39 1
    12    7   12 ar
    13    7    8 ar
    14    8    9 ar
    15    8   40 1
    16    9   10 ar
    17    9   41 1
    18   10   11 ar
    19   10   15 1
    20   11   12 ar
    21   11   14 1
    22   12   13 1
    23   16   17 1
    24   17   21 1
    25   17   18 2
    26   18   19 1
    27   19   20 2
    28   20   30 1
    29   20   21 1
    30   21   22 1
    31   22   27 ar
    32   22   23 ar
    33   23   24 ar
    34   23   42 1
    35   24   25 ar
    36   24   43 1
    37   25   26 ar
    38   25   44 1
    39   26   27 ar
    40   26   45 1
    41   27   28 1
    42   28   29 2
    43   28   30 am
    44   30   31 1
    45   31   32 1
    46   31   46 1
    47   31   47 1
    48   32   33 1
    49   32   48 1
    50   32   49 1
    51   33   34 1
    52   33   35 1
    53   33   50 1
    54   34   51 1
    55   34   52 1
    56   34   53 1
    57   35   54 1
    58   35   55 1
    59   35   56 1
@<TRIPOS>MOLECULE
ZINC12386466
   57    59     0     0     0
SMALL
USER_CHARGES
(3R)-3-[2-[4-(5-chloro-2-pyridyl)piperazin-1-yl]-2-oxo-ethyl]-4-isobutyl-piperazin-2-one
@<TRIPOS>ATOM
      1 C1          2.6097   -0.6994    4.4124 C.3       1 <0>        -0.1699
      2 C2          3.8821    0.1500    4.3944 C.3       1 <0>        -0.1289
      3 C3          3.8800    1.0972    5.5959 C.3       1 <0>        -0.1518
      4 C4          5.1067   -0.7642    4.4678 C.3       1 <0>        -0.0134
      5 C5          5.7648   -2.9000    3.5301 C.3       1 <0>        -0.0192
      6 C6          5.5412   -3.8045    2.3167 C.3       1 <0>         0.0818
      7 N1          5.9810   -3.1275    1.1001 N.am      1 <0>        -0.7086
      8 C7          6.1627   -1.8046    1.0296 C.2       1 <0>         0.5200
      9 O1          6.4996   -1.3200   -0.0299 O.2       1 <0>        -0.5018
     10 C8          5.9664   -0.8932    2.2080 C.3       1 <0>         0.0392
     11 H1          6.9381   -0.6128    2.6143 H         1 <0>         0.1793
     12 C9          5.2216    0.3653    1.7581 C.3       1 <0>        -0.1750
     13 C10         3.8344   -0.0078    1.3026 C.2       1 <0>         0.5210
     14 O2          3.5068   -1.1743    1.2495 O.2       1 <0>        -0.5370
     15 N2          2.9578    0.9549    0.9542 N.am      1 <0>        -0.6032
     16 C11         1.5991    0.6128    0.5069 C.3       1 <0>         0.1171
     17 C12         1.3286    1.3297   -0.8201 C.3       1 <0>        -0.0004
     18 N3          1.5856    2.7669   -0.6578 N.pl3     1 <0>        -0.4735
     19 C13         2.9958    3.0231   -0.3360 C.3       1 <0>         0.0331
     20 C14         3.3348    2.3755    1.0108 C.3       1 <0>         0.0976
     21 C15         1.1965    3.4738   -1.7904 C.ar      1 <0>         0.3654
     22 C16         1.3600    4.8549   -1.8308 C.ar      1 <0>        -0.1338
     23 C17         0.9694    5.5458   -2.9634 C.ar      1 <0>         0.0479
     24 C18         0.4257    4.8291   -4.0227 C.ar      1 <0>        -0.0803
     25 C19         0.2926    3.4586   -3.9141 C.ar      1 <0>         0.1576
     26 Cl1        -0.0802    5.6478   -5.4675 Cl        1 <0>         0.0400
     27 H2          2.6522   -1.4346    3.6088 H         1 <0>         0.0510
     28 H3          2.5290   -1.2127    5.3706 H         1 <0>         0.0812
     29 H4          1.7413   -0.0561    4.2706 H         1 <0>         0.0816
     30 H5          3.9176    0.7317    3.4732 H         1 <0>         0.0827
     31 H6          4.7865    1.7024    5.5831 H         1 <0>         0.0706
     32 H7          3.0075    1.7485    5.5436 H         1 <0>         0.0783
     33 H8          3.8444    0.5156    6.5171 H         1 <0>         0.0745
     34 H9          5.0200   -1.4187    5.3352 H         1 <0>         0.1428
     35 H10         6.0079   -0.1579    4.5588 H         1 <0>         0.1378
     36 H11         5.2777   -3.3333    4.4036 H         1 <0>         0.1556
     37 H12         6.8336   -2.7979    3.7179 H         1 <0>         0.1439
     38 H13         4.4809   -4.0436    2.2343 H         1 <0>         0.0998
     39 H14         6.1092   -4.7262    2.4431 H         1 <0>         0.1315
     40 H15         6.1492   -3.6612    0.3078 H         1 <0>         0.4274
     41 H16         5.7614    0.8319    0.9341 H         1 <0>         0.1573
     42 H17         5.1546    1.0651    2.5911 H         1 <0>         0.1405
     43 H18         0.8749    0.9387    1.2535 H         1 <0>         0.1019
     44 H19         1.5180   -0.4648    0.3640 H         1 <0>         0.1221
     45 H20         0.2893    1.1767   -1.1109 H         1 <0>         0.1136
     46 H21         1.9851    0.9277   -1.5917 H         1 <0>         0.0803
     47 H22         3.6295    2.5973   -1.1140 H         1 <0>         0.0808
     48 H23         3.1657    4.0980   -0.2757 H         1 <0>         0.1267
     49 H24         2.7774    2.8708    1.8058 H         1 <0>         0.1073
     50 H25         4.4039    2.4632    1.2038 H         1 <0>         0.1138
     51 H26         1.7859    5.3803   -0.9889 H         1 <0>         0.1983
     52 H27         1.0846    6.6180   -3.0233 H         1 <0>         0.1924
     53 H28        -0.1290    2.8972   -4.7347 H         1 <0>         0.2087
     54 N4          5.1646   -1.5833    3.2357 N.4       1 <0>        -0.4020
     55 H29         4.2109   -1.7211    2.8810 H         1 <0>         0.4340
     56 N5          0.6711    2.7472   -2.8185 N.ar      1 <0>        -0.5115
     57 H30         0.5679    1.7268   -2.7683 H         1 <0>         0.4737
@<TRIPOS>BOND
     1    1    2 1
     2    1   27 1
     3    1   28 1
     4    1   29 1
     5    2    3 1
     6    2    4 1
     7    2   30 1
     8    3   31 1
     9    3   32 1
    10    3   33 1
    11    4   34 1
    12    4   35 1
    13    4   54 1
    14    5    6 1
    15    5   36 1
    16    5   37 1
    17    5   54 1
    18    6    7 1
    19    6   38 1
    20    6   39 1
    21    7    8 am
    22    7   40 1
    23    8    9 2
    24    8   10 1
    25   10   11 1
    26   10   12 1
    27   10   54 1
    28   12   13 1
    29   12   41 1
    30   12   42 1
    31   13   14 2
    32   13   15 am
    33   15   20 1
    34   15   16 1
    35   16   17 1
    36   16   43 1
    37   16   44 1
    38   17   18 1
    39   17   45 1
    40   17   46 1
    41   18   19 1
    42   18   21 1
    43   19   20 1
    44   19   47 1
    45   19   48 1
    46   20   49 1
    47   20   50 1
    48   21   22 ar
    49   21   56 ar
    50   22   23 ar
    51   22   51 1
    52   23   24 ar
    53   23   52 1
    54   24   25 ar
    55   24   26 1
    56   25   53 1
    57   25   56 ar
    58   54   55 1
    59   56   57 1
@<TRIPOS>MOLECULE
ZINC38979907
   49    52     0     0     0
SMALL
USER_CHARGES

@<TRIPOS>ATOM
      1 C1         -0.0167    1.3781    0.0096 C.ar      1 <0>        -0.0332
      2 C2          1.1709    2.0855    0.0021 C.ar      1 <0>        -0.1285
      3 C3          2.3773    1.4107   -0.0130 C.ar      1 <0>        -0.0157
      4 C4          2.3960    0.0285   -0.0201 C.ar      1 <0>        -0.6429
      5 C5          1.2084   -0.6789   -0.0117 C.ar      1 <0>        -0.0160
      6 C6          0.0021   -0.0041    0.0020 C.ar      1 <0>        -0.1284
      7 S1          3.9337   -0.8316   -0.0405 S.o2      1 <0>         2.5738
      8 O1          3.6744   -2.1140   -0.5951 O.2       1 <0>        -0.9208
      9 O2          4.8903    0.0598   -0.5970 O.2       1 <0>        -0.9226
     10 N1          4.3776   -1.0785    1.5357 N.2       1 <0>        -0.8438
     11 C7          5.4872   -1.6990    1.8091 C.2       1 <0>         0.4540
     12 C8          5.9001   -1.9359    3.2442 C.3       1 <0>         0.2517
     13 H1          5.9620   -0.9657    3.7371 H         1 <0>         0.2149
     14 N2          7.1666   -2.6444    3.4866 N.pl3     1 <0>        -0.3951
     15 C9          7.8692   -3.0323    2.4590 C.ar      1 <0>         0.3383
     16 C10         9.1419   -3.7441    2.6473 C.ar      1 <0>        -0.1062
     17 C11         9.8417   -4.1305    1.5581 C.ar      1 <0>        -0.0238
     18 C12         9.3844   -3.8698    0.2556 C.ar      1 <0>         0.1464
     19 C13         8.2262   -3.2218    0.0039 C.ar      1 <0>        -0.2046
     20 C14         7.4105   -2.7705    1.0725 C.ar      1 <0>         0.3800
     21 N3          6.2804   -2.1435    0.8213 N.pl3     1 <0>        -0.5390
     22 N4          4.8285   -2.6980    3.8990 N.3       1 <0>        -0.6403
     23 C15         4.5189   -2.1405    5.2224 C.3       1 <0>         0.0248
     24 C16         3.4010   -2.9587    5.8717 C.3       1 <0>         0.0798
     25 H2          2.5423   -3.0080    5.2022 H         1 <0>         0.0923
     26 C17         2.9857   -2.3091    7.2092 C.3       1 <0>        -0.1506
     27 C18         2.7503   -3.5465    8.1176 C.3       1 <0>        -0.1584
     28 C19         3.8290   -4.5182    7.5763 C.3       1 <0>         0.0461
     29 O3          3.8704   -4.2813    6.1582 O.3       1 <0>        -0.3708
     30 H3         -0.9591    1.9053    0.0259 H         1 <0>         0.1483
     31 H4          1.1563    3.1654    0.0076 H         1 <0>         0.1485
     32 H5          3.3051    1.9634   -0.0196 H         1 <0>         0.1445
     33 H6          1.2231   -1.7588   -0.0176 H         1 <0>         0.1450
     34 H7         -0.9258   -0.5567    0.0082 H         1 <0>         0.1486
     35 H8          9.5116   -3.9542    3.6401 H         1 <0>         0.2195
     36 H9         10.7771   -4.6533    1.6922 H         1 <0>         0.2128
     37 H10         9.9841   -4.2009   -0.5794 H         1 <0>         0.2133
     38 H11         7.9198   -3.0464   -1.0167 H         1 <0>         0.2142
     39 H12         4.0034   -2.7329    3.3193 H         1 <0>         0.3983
     40 H13         5.4091   -2.1791    5.8502 H         1 <0>         0.1008
     41 H14         4.1955   -1.1053    5.1139 H         1 <0>         0.0885
     42 H15         3.7881   -1.6855    7.6033 H         1 <0>         0.0834
     43 H16         2.0674   -1.7334    7.0922 H         1 <0>         0.0942
     44 H17         2.9297   -3.3046    9.1652 H         1 <0>         0.0945
     45 H18         1.7489   -3.9530    7.9761 H         1 <0>         0.0870
     46 H19         4.7970   -4.2973    8.0259 H         1 <0>         0.0649
     47 H20         3.5438   -5.5507    7.7783 H         1 <0>         0.0958
     48 H21         7.4722   -2.8188    4.3906 H         1 <0>         0.4821
     49 H22         6.0158   -1.9963   -0.1003 H         1 <0>         0.4547
@<TRIPOS>BOND
     1    1    6 ar
     2    1    2 ar
     3    1   30 1
     4    2    3 ar
     5    2   31 1
     6    3    4 ar
     7    3   32 1
     8    4    5 ar
     9    4    7 1
    10    5    6 ar
    11    5   33 1
    12    6   34 1
    13    7    8 2
    14    7    9 2
    15    7   10 1
    16   10   11 2
    17   11   21 1
    18   11   12 1
    19   12   13 1
    20   12   14 1
    21   12   22 1
    22   14   15 2
    23   14   48 1
    24   15   20 ar
    25   15   16 ar
    26   16   17 ar
    27   16   35 1
    28   17   18 ar
    29   17   36 1
    30   18   19 ar
    31   18   37 1
    32   19   20 ar
    33   19   38 1
    34   20   21 2
    35   21   49 1
    36   22   23 1
    37   22   39 1
    38   23   24 1
    39   23   40 1
    40   23   41 1
    41   24   25 1
    42   24   29 1
    43   24   26 1
    44   26   27 1
    45   26   42 1
    46   26   43 1
    47   27   28 1
    48   27   44 1
    49   27   45 1
    50   28   29 1
    51   28   46 1
    52   28   47 1
@<TRIPOS>MOLECULE
ZINC63205506
   49    51     0     0     0
SMALL
USER_CHARGES

@<TRIPOS>ATOM
      1 C1         -0.5700    2.0266   -0.1949 C.3       1 <0>        -0.1650
      2 C2         -0.2560    0.5295   -0.2234 C.3       1 <0>        -0.1073
      3 C3         -1.5407   -0.2658    0.0172 C.3       1 <0>        -0.1430
      4 H1         -2.2983    0.0409   -0.7040 H         1 <0>         0.1314
      5 C4         -1.2587   -1.7372   -0.1455 C.2       1 <0>         0.4885
      6 O1         -1.0897   -2.4339    0.8325 O.2       1 <0>        -0.4796
      7 N1         -1.1943   -2.2787   -1.3780 N.am      1 <0>        -0.5894
      8 C5         -0.9353   -3.6298   -1.5274 C.2       1 <0>         0.2077
      9 N2         -0.8320   -4.3229   -2.6469 N.2       1 <0>        -0.5281
     10 C6         -0.5814   -5.6073   -2.6356 C.2       1 <0>         0.1907
     11 C7         -0.4315   -6.1952   -1.3862 C.2       1 <0>        -0.2857
     12 S1         -0.6699   -4.7780   -0.3260 S.3       1 <0>         0.3004
     13 C8         -0.1510   -7.5861   -1.0364 C.2       1 <0>         0.5521
     14 O2         -0.0142   -8.4181   -1.9135 O.2       1 <0>        -0.4701
     15 O3         -0.0437   -7.9475    0.2591 O.3       1 <0>        -0.3508
     16 C9          0.2316   -9.3237    0.5281 C.3       1 <0>         0.0612
     17 C10         0.3169   -9.5407    2.0402 C.3       1 <0>        -0.1539
     18 C11        -0.4626   -6.4050   -3.9086 C.3       1 <0>        -0.1008
     19 S2         -2.1427    0.0522    1.6986 S.3       1 <0>         0.1098
     20 C12        -3.8136   -0.6540    1.7075 C.3       1 <0>         0.2061
     21 N3         -3.7506   -2.1005    1.4628 N.pl3     1 <0>        -0.4491
     22 C13        -4.4184   -2.3414    0.3717 C.ar      1 <0>         0.2964
     23 C14        -4.7086   -3.5764   -0.3698 C.ar      1 <0>        -0.1380
     24 C15        -5.4455   -3.5177   -1.4971 C.ar      1 <0>         0.0304
     25 C16        -5.9585   -2.3111   -2.0055 C.ar      1 <0>         0.0436
     26 C17        -5.7520   -1.1226   -1.4037 C.ar      1 <0>        -0.1407
     27 C18        -4.9611   -1.0642   -0.1666 C.ar      1 <0>         0.3117
     28 N4         -4.6078   -0.0830    0.6124 N.pl3     1 <0>        -0.4694
     29 H2          0.3238    2.5905   -0.4620 H         1 <0>         0.0918
     30 H3         -1.3642    2.2450   -0.9088 H         1 <0>         0.0681
     31 H4         -0.8933    2.3110    0.8065 H         1 <0>         0.0685
     32 H5          0.1591    0.2637   -1.1956 H         1 <0>         0.1133
     33 H6          0.4679    0.2951    0.5570 H         1 <0>         0.1017
     34 H7         -1.3295   -1.7214   -2.1603 H         1 <0>         0.4338
     35 H8         -0.5671   -9.9411    0.1169 H         1 <0>         0.0760
     36 H9          1.1795   -9.6014    0.0671 H         1 <0>         0.0771
     37 H10         0.5269  -10.5904    2.2453 H         1 <0>         0.0893
     38 H11         1.1155   -8.9233    2.4514 H         1 <0>         0.0686
     39 H12        -0.6310   -9.2630    2.5012 H         1 <0>         0.0659
     40 H13         0.5744   -6.4013   -4.2443 H         1 <0>         0.0959
     41 H14        -0.7815   -7.4311   -3.7255 H         1 <0>         0.1040
     42 H15        -1.0947   -5.9596   -4.6768 H         1 <0>         0.0861
     43 H16        -4.2980   -0.4562    2.6636 H         1 <0>         0.2736
     44 H17        -4.3343   -4.5248   -0.0138 H         1 <0>         0.2047
     45 H18        -5.6502   -4.4339   -2.0309 H         1 <0>         0.2049
     46 H19        -6.5416   -2.3377   -2.9142 H         1 <0>         0.2071
     47 H20        -6.1645   -0.2194   -1.8283 H         1 <0>         0.2098
     48 H21        -3.2947   -2.7563    2.0132 H         1 <0>         0.5017
     49 H22        -4.8291    0.8537    0.4919 H         1 <0>         0.4991
@<TRIPOS>BOND
     1    1    2 1
     2    1   29 1
     3    1   30 1
     4    1   31 1
     5    2    3 1
     6    2   32 1
     7    2   33 1
     8    3    4 1
     9    3    5 1
    10    3   19 1
    11    5    6 2
    12    5    7 am
    13    7    8 1
    14    7   34 1
    15    8   12 1
    16    8    9 2
    17    9   10 1
    18   10   11 2
    19   10   18 1
    20   11   12 1
    21   11   13 1
    22   13   14 2
    23   13   15 1
    24   15   16 1
    25   16   17 1
    26   16   35 1
    27   16   36 1
    28   17   37 1
    29   17   38 1
    30   17   39 1
    31   18   40 1
    32   18   41 1
    33   18   42 1
    34   19   20 1
    35   20   28 1
    36   20   21 1
    37   20   43 1
    38   21   22 2
    39   21   48 1
    40   22   27 ar
    41   22   23 ar
    42   23   24 ar
    43   23   44 1
    44   24   25 ar
    45   24   45 1
    46   25   26 ar
    47   25   46 1
    48   26   27 ar
    49   26   47 1
    50   27   28 2
    51   28   49 1
@<TRIPOS>MOLECULE
ZINC63742965
   47    49     0     0     0
SMALL
USER_CHARGES

@<TRIPOS>ATOM
      1 C1         -0.0187    1.5258    0.0104 C.3       1 <0>        -0.1543
      2 C2          0.0021   -0.0041    0.0020 C.3       1 <0>         0.0595
      3 O1          0.6932   -0.4774    1.1597 O.3       1 <0>        -0.3422
      4 C3          0.8006   -1.8076    1.3039 C.2       1 <0>         0.4757
      5 O2          0.3237   -2.5457    0.4746 O.2       1 <0>        -0.4838
      6 C4          1.5162   -2.3806    2.5000 C.3       1 <0>        -0.0704
      7 H1          1.0199   -2.0438    3.4102 H         1 <0>         0.1357
      8 C5          2.9315   -1.8995    2.5041 C.2       1 <0>        -0.1887
      9 C6          3.8983   -2.7011    2.1015 C.2       1 <0>        -0.0954
     10 S1          3.1072   -4.2386    1.6637 S.3       1 <0>        -0.1494
     11 C7          1.4642   -3.9298    2.4329 C.3       1 <0>         0.1776
     12 H2          0.6528   -4.2751    1.7922 H         1 <0>         0.1761
     13 N1          1.3774   -4.5228    3.7697 N.am      1 <0>        -0.6907
     14 C8          0.5033   -5.5204    4.0089 C.2       1 <0>         0.5385
     15 O3         -0.2116   -5.9270    3.1176 O.2       1 <0>        -0.4899
     16 C9          0.4140   -6.1304    5.3840 C.3       1 <0>        -0.1975
     17 S2         -0.8442   -7.4371    5.3854 S.3       1 <0>         0.1034
     18 C10        -0.8275   -8.0607    7.0887 C.3       1 <0>         0.2155
     19 H3         -1.5671   -8.8531    7.2039 H         1 <0>         0.2630
     20 N2         -1.1092   -6.9684    8.0278 N.pl3     1 <0>        -0.4543
     21 C11        -0.0764   -6.8484    8.8115 C.ar      1 <0>         0.3210
     22 C12         0.2164   -5.9393    9.9297 C.ar      1 <0>        -0.0977
     23 C13         1.3906   -6.0365   10.5807 C.ar      1 <0>        -0.0326
     24 C14         2.3962   -7.0242   10.2112 C.ar      1 <0>         0.2954
     25 C15         2.2008   -7.8968    9.1926 C.ar      1 <0>        -0.2267
     26 C16         0.9492   -7.8578    8.4333 C.ar      1 <0>         0.3111
     27 N3          0.5087   -8.5656    7.4273 N.pl3     1 <0>        -0.5065
     28 O4          3.5603   -7.0714   10.9055 O.3       1 <0>        -0.2366
     29 C17         3.7195   -6.1311   11.9697 C.3       1 <0>        -0.0107
     30 H4          1.0039    1.9031    0.0027 H         1 <0>         0.0699
     31 H5         -0.5459    1.8868   -0.8726 H         1 <0>         0.0874
     32 H6         -0.5289    1.8773    0.9072 H         1 <0>         0.0678
     33 H7         -1.0205   -0.3814    0.0098 H         1 <0>         0.0725
     34 H8          0.5123   -0.3556   -0.8948 H         1 <0>         0.0749
     35 H9          3.1618   -0.8981    2.8364 H         1 <0>         0.1576
     36 H10         4.9526   -2.4732    2.0476 H         1 <0>         0.1889
     37 H11         1.9492   -4.1976    4.4826 H         1 <0>         0.4100
     38 H12         1.3800   -6.5559    5.6561 H         1 <0>         0.1362
     39 H13         0.1396   -5.3611    6.1058 H         1 <0>         0.1313
     40 H14        -0.5082   -5.1959   10.2275 H         1 <0>         0.2147
     41 H15         1.5933   -5.3629   11.4002 H         1 <0>         0.2091
     42 H16         2.9648   -8.6177    8.9420 H         1 <0>         0.2083
     43 H17         2.9318   -6.2811   12.7080 H         1 <0>         0.0939
     44 H18         4.6916   -6.2767   12.4408 H         1 <0>         0.1461
     45 H19         3.6566   -5.1182   11.5720 H         1 <0>         0.0933
     46 H20        -1.9175   -6.4330    8.0586 H         1 <0>         0.4968
     47 H21         0.9773   -9.2909    6.9855 H         1 <0>         0.4961
@<TRIPOS>BOND
     1    1    2 1
     2    1   30 1
     3    1   31 1
     4    1   32 1
     5    2    3 1
     6    2   33 1
     7    2   34 1
     8    3    4 1
     9    4    5 2
    10    4    6 1
    11    6    7 1
    12    6   11 1
    13    6    8 1
    14    8    9 2
    15    8   35 1
    16    9   10 1
    17    9   36 1
    18   10   11 1
    19   11   12 1
    20   11   13 1
    21   13   14 am
    22   13   37 1
    23   14   15 2
    24   14   16 1
    25   16   17 1
    26   16   38 1
    27   16   39 1
    28   17   18 1
    29   18   19 1
    30   18   27 1
    31   18   20 1
    32   20   21 2
    33   20   46 1
    34   21   26 ar
    35   21   22 ar
    36   22   23 ar
    37   22   40 1
    38   23   24 ar
    39   23   41 1
    40   24   25 ar
    41   24   28 1
    42   25   26 ar
    43   25   42 1
    44   26   27 2
    45   27   47 1
    46   28   29 1
    47   29   43 1
    48   29   44 1
    49   29   45 1
@<TRIPOS>MOLECULE
ZINC64103294
   59    63     0     0     0
SMALL
USER_CHARGES

@<TRIPOS>ATOM
      1 C1         -0.0163    1.3482    0.0095 C.ar      1 <0>        -0.0961
      2 C2          1.1658    2.1014    0.0022 C.ar      1 <0>         0.0567
      3 C3          2.3912    1.5352   -0.0125 C.ar      1 <0>        -0.1972
      4 C4          2.5288    0.1198   -0.0218 C.ar      1 <0>         0.3326
      5 N1          3.5868   -0.6543   -0.0369 N.pl3     1 <0>        -0.5534
      6 C5          3.1432   -2.0528   -0.0408 C.3       1 <0>         0.0665
      7 C6          1.6315   -2.0084   -0.0255 C.2       1 <0>        -0.0587
      8 C7          1.2951   -0.6984   -0.0144 C.ar      1 <0>        -0.0867
      9 C8          0.0021   -0.0041    0.0020 C.ar      1 <0>        -0.0723
     10 C9          0.6905   -3.1856   -0.0239 C.3       1 <0>         0.0470
     11 N2          0.4658   -3.6347   -1.4044 N.4       1 <0>        -0.3824
     12 C10        -0.2223   -2.5778   -2.1554 C.3       1 <0>        -0.0212
     13 C11        -0.3866   -3.0080   -3.6146 C.3       1 <0>        -0.1408
     14 C12        -1.2119   -4.2968   -3.6713 C.3       1 <0>        -0.1489
     15 C13        -0.5230   -5.3702   -2.8238 C.3       1 <0>        -0.1226
     16 H1          0.4556   -5.5959   -3.2475 H         1 <0>         0.1052
     17 C14        -0.3536   -4.8525   -1.3939 C.3       1 <0>        -0.0025
     18 C15        -1.3789   -6.6383   -2.8110 C.3       1 <0>         0.1257
     19 N3         -1.4451   -7.1965   -4.1639 N.pl3     1 <0>        -0.3033
     20 C16        -1.1169   -8.4610   -4.5167 C.2       1 <0>        -0.0391
     21 C17        -1.3258   -8.5463   -5.8513 C.2       1 <0>        -0.0227
     22 N4         -1.7658   -7.3457   -6.2444 N.2       1 <0>        -0.2348
     23 N5         -1.8306   -6.5701   -5.2202 N.2       1 <0>        -0.0874
     24 C18        -1.1056   -9.7557   -6.7230 C.3       1 <0>         0.2095
     25 C19         0.3861  -10.1488   -6.7143 C.3       1 <0>        -0.1406
     26 C20         0.6639  -10.6172   -8.1643 C.3       1 <0>        -0.1236
     27 C21        -0.1789   -9.6303   -9.0097 C.3       1 <0>        -0.1241
     28 C22        -1.4648   -9.4260   -8.1824 C.3       1 <0>        -0.1150
     29 O1         -1.9029  -10.8462   -6.2570 O.3       1 <0>        -0.5384
     30 H2         -0.9665    1.8612    0.0259 H         1 <0>         0.1707
     31 H3          1.0933    3.1789    0.0083 H         1 <0>         0.1744
     32 H4          3.2717    2.1606   -0.0175 H         1 <0>         0.1733
     33 H5          3.4952   -2.5561   -0.9413 H         1 <0>         0.1754
     34 H6          3.5129   -2.5667    0.8465 H         1 <0>         0.1869
     35 H7         -0.9210   -0.5647    0.0081 H         1 <0>         0.1657
     36 H8          1.1268   -3.9987    0.5563 H         1 <0>         0.1702
     37 H9         -0.2596   -2.8905    0.4214 H         1 <0>         0.1654
     38 H10        -1.2042   -2.4012   -1.7164 H         1 <0>         0.1406
     39 H11         0.3647   -1.6604   -2.1114 H         1 <0>         0.1221
     40 H12        -0.8993   -2.2227   -4.1701 H         1 <0>         0.1227
     41 H13         0.5949   -3.1847   -4.0547 H         1 <0>         0.0881
     42 H14        -2.2108   -4.1075   -3.2782 H         1 <0>         0.0906
     43 H15        -1.2840   -4.6383   -4.7039 H         1 <0>         0.1266
     44 H16         0.1365   -5.6144   -0.7877 H         1 <0>         0.1445
     45 H17        -1.3327   -4.6274   -0.9711 H         1 <0>         0.1452
     46 H18        -0.9337   -7.3704   -2.1373 H         1 <0>         0.1186
     47 H19        -2.3847   -6.3943   -2.4691 H         1 <0>         0.1130
     48 H20        -0.7598   -9.2444   -3.8647 H         1 <0>         0.1944
     49 H21         1.0062   -9.2873   -6.4663 H         1 <0>         0.0699
     50 H22         0.5622  -10.9621   -6.0103 H         1 <0>         0.0772
     51 H23         1.7231  -10.5243   -8.4040 H         1 <0>         0.0719
     52 H24         0.3219  -11.6416   -8.3115 H         1 <0>         0.0770
     53 H25         0.3500   -8.6851   -9.1324 H         1 <0>         0.0667
     54 H26        -0.4151  -10.0652   -9.9809 H         1 <0>         0.0759
     55 H27        -2.2467  -10.0984   -8.5355 H         1 <0>         0.0843
     56 H28        -1.7984   -8.3912   -8.2602 H         1 <0>         0.0906
     57 H29        -1.7157  -11.1089   -5.3453 H         1 <0>         0.3737
     58 H30         4.5087   -0.3528   -0.0446 H         1 <0>         0.4670
     59 H31         1.3536   -3.8317   -1.8416 H         1 <0>         0.4256
@<TRIPOS>BOND
     1    1    9 ar
     2    1    2 ar
     3    1   30 1
     4    2    3 ar
     5    2   31 1
     6    3    4 ar
     7    3   32 1
     8    4    8 ar
     9    4    5 2
    10    5    6 1
    11    5   58 1
    12    6    7 1
    13    6   33 1
    14    6   34 1
    15    7    8 2
    16    7   10 1
    17    8    9 ar
    18    9   35 1
    19   10   11 1
    20   10   36 1
    21   10   37 1
    22   11   17 1
    23   11   12 1
    24   11   59 1
    25   12   13 1
    26   12   38 1
    27   12   39 1
    28   13   14 1
    29   13   40 1
    30   13   41 1
    31   14   15 1
    32   14   42 1
    33   14   43 1
    34   15   16 1
    35   15   17 1
    36   15   18 1
    37   17   44 1
    38   17   45 1
    39   18   19 1
    40   18   46 1
    41   18   47 1
    42   19   23 1
    43   19   20 1
    44   20   21 2
    45   20   48 1
    46   21   22 1
    47   21   24 1
    48   22   23 2
    49   24   28 1
    50   24   25 1
    51   24   29 1
    52   25   26 1
    53   25   49 1
    54   25   50 1
    55   26   27 1
    56   26   51 1
    57   26   52 1
    58   27   28 1
    59   27   53 1
    60   27   54 1
    61   28   55 1
    62   28   56 1
    63   29   57 1
@<TRIPOS>MOLECULE
ZINC03461850
   46    48     0     0     0
SMALL
USER_CHARGES
N-(2-fluoro-5-nitro-phenyl)-2-[4-methyl-2,5-dioxo-4-(p-tolyl)imidazolidin-1-yl]-acetamide
@<TRIPOS>ATOM
      1 C1          0.0533   -4.2913   -0.0425 C.3       1 <0>        -0.1196
      2 C2          0.0263   -2.7846   -0.0305 C.ar      1 <0>        -0.0713
      3 C3          1.0372   -2.0802    0.5962 C.ar      1 <0>        -0.1192
      4 C4          1.0124   -0.6981    0.6072 C.ar      1 <0>        -0.0914
      5 C5         -0.0228   -0.0204   -0.0093 C.ar      1 <0>        -0.1068
      6 C6         -1.0362   -0.7250   -0.6319 C.ar      1 <0>        -0.0991
      7 C7         -1.0091   -2.1070   -0.6466 C.ar      1 <0>        -0.1133
      8 C8         -0.0498    1.4863    0.0026 C.3       1 <0>         0.1724
      9 C9         -0.6439    2.0193   -1.2861 C.2       1 <0>         0.5426
     10 O1         -1.7631    1.8276   -1.7107 O.2       1 <0>        -0.4521
     11 N1          0.3313    2.7496   -1.8621 N.am      1 <0>        -0.5632
     12 C10         1.4473    2.7522   -1.1242 C.2       1 <0>         0.7117
     13 O2          2.4629    3.3418   -1.4372 O.2       1 <0>        -0.5352
     14 N2          1.3196    2.0292    0.0031 N.am      1 <0>        -0.7129
     15 C11         0.1874    3.4532   -3.1390 C.3       1 <0>         0.1045
     16 C12         0.5965    2.5391   -4.2651 C.2       1 <0>         0.5030
     17 O3          0.9713    1.4108   -4.0247 O.2       1 <0>        -0.4937
     18 N3          0.5458    2.9752   -5.5394 N.am      1 <0>        -0.6649
     19 C13         1.0133    2.1599   -6.5776 C.ar      1 <0>         0.1182
     20 C14         0.8559    0.7826   -6.5053 C.ar      1 <0>        -0.0345
     21 C15         1.3129   -0.0188   -7.5336 C.ar      1 <0>        -0.0366
     22 C16         1.9376    0.5478   -8.6295 C.ar      1 <0>        -0.0382
     23 C17         2.1019    1.9186   -8.7036 C.ar      1 <0>        -0.1309
     24 C18         1.6413    2.7276   -7.6807 C.ar      1 <0>         0.1313
     25 F1          1.8017    4.0671   -7.7529 F         1 <0>        -0.1150
     26 N4          1.1392   -1.4868   -7.4593 N.pl3     1 <0>         0.0275
     27 O4          1.5462   -2.1947   -8.3630 O.2       1 <0>        -0.1497
     28 O5          0.5891   -1.9869   -6.4945 O.3       1 <0>        -0.1476
     29 C19        -0.8327    1.9995    1.2128 C.3       1 <0>        -0.1440
     30 H1         -0.4733   -4.6711    0.8331 H         1 <0>         0.0738
     31 H2         -0.4344   -4.6563   -0.9464 H         1 <0>         0.0703
     32 H3          1.0871   -4.6363   -0.0227 H         1 <0>         0.0685
     33 H4          1.8461   -2.6096    1.0776 H         1 <0>         0.1269
     34 H5          1.8020   -0.1477    1.0972 H         1 <0>         0.1209
     35 H6         -1.8472   -0.1956   -1.1098 H         1 <0>         0.1374
     36 H7         -1.7987   -2.6573   -1.1365 H         1 <0>         0.1281
     37 H8          1.9973    1.8917    0.6833 H         1 <0>         0.4422
     38 H9         -0.8519    3.7530   -3.2736 H         1 <0>         0.1366
     39 H10         0.8239    4.3381   -3.1400 H         1 <0>         0.1389
     40 H11         0.1855    3.8538   -5.7373 H         1 <0>         0.4236
     41 H12         0.3725    0.3382   -5.6479 H         1 <0>         0.1782
     42 H13         2.2978   -0.0820   -9.4295 H         1 <0>         0.1682
     43 H14         2.5899    2.3581   -9.5610 H         1 <0>         0.1685
     44 H15        -0.3583    1.6469    2.1286 H         1 <0>         0.0848
     45 H16        -0.8413    3.0894    1.2044 H         1 <0>         0.0729
     46 H17        -1.8564    1.6277    1.1676 H         1 <0>         0.0884
@<TRIPOS>BOND
     1    1    2 1
     2    1   30 1
     3    1   31 1
     4    1   32 1
     5    2    7 ar
     6    2    3 ar
     7    3    4 ar
     8    3   33 1
     9    4    5 ar
    10    4   34 1
    11    5    6 ar
    12    5    8 1
    13    6    7 ar
    14    6   35 1
    15    7   36 1
    16    8   14 1
    17    8    9 1
    18    8   29 1
    19    9   10 2
    20    9   11 am
    21   11   12 am
    22   11   15 1
    23   12   13 2
    24   12   14 am
    25   14   37 1
    26   15   16 1
    27   15   38 1
    28   15   39 1
    29   16   17 2
    30   16   18 am
    31   18   19 1
    32   18   40 1
    33   19   24 ar
    34   19   20 ar
    35   20   21 ar
    36   20   41 1
    37   21   22 ar
    38   21   26 1
    39   22   23 ar
    40   22   42 1
    41   23   24 ar
    42   23   43 1
    43   24   25 1
    44   26   27 2
    45   26   28 1
    46   29   44 1
    47   29   45 1
    48   29   46 1
@<TRIPOS>MOLECULE
ZINC06369036
   60    62     0     0     0
SMALL
USER_CHARGES
1-[(1-cyanocyclohexyl)carbamoyl]ethyl 2-(10-methyl-2,4-dioxo-1,3-diazaspiro[4.5]dec-3-yl)acetate
@<TRIPOS>ATOM
      1 C1         -1.0371   -3.9262    3.4706 C.3       1 <0>        -0.1545
      2 C2         -2.1548   -4.9357    3.2009 C.3       1 <0>        -0.0840
      3 H1         -1.9570   -5.4542    2.2628 H         1 <0>         0.0957
      4 C3         -2.2104   -5.9526    4.3439 C.3       1 <0>        -0.1127
      5 C4         -3.3415   -6.9493    4.0835 C.3       1 <0>        -0.1257
      6 C5         -4.6754   -6.2032    4.0111 C.3       1 <0>        -0.1172
      7 C6         -4.6287   -5.1873    2.8667 C.3       1 <0>        -0.1158
      8 C7         -3.4886   -4.2033    3.1052 C.3       1 <0>         0.1325
      9 C8         -3.4501   -3.1694    2.0036 C.2       1 <0>         0.5395
     10 O1         -3.2756   -3.3643    0.8198 O.2       1 <0>        -0.4551
     11 N1         -3.6484   -1.9834    2.6155 N.am      1 <0>        -0.5675
     12 C9         -3.8117   -2.1311    3.9359 C.2       1 <0>         0.7085
     13 O2         -4.0087   -1.2069    4.7002 O.2       1 <0>        -0.5353
     14 N2         -3.7329   -3.4188    4.3224 N.am      1 <0>        -0.7095
     15 C10        -3.6865   -0.6944    1.9203 C.3       1 <0>         0.1289
     16 C11        -2.2986   -0.1092    1.8708 C.2       1 <0>         0.4534
     17 O3         -1.3727   -0.7075    2.3654 O.2       1 <0>        -0.4909
     18 O4         -2.0911    1.0767    1.2771 O.3       1 <0>        -0.3221
     19 C12        -0.7288    1.5792    1.2668 C.3       1 <0>         0.0731
     20 H2         -0.2017    1.2182    2.1499 H         1 <0>         0.1142
     21 C13        -0.0127    1.0858    0.0080 C.3       1 <0>        -0.1661
     22 C14        -0.7493    3.0861    1.2751 C.2       1 <0>         0.5199
     23 O5         -1.8046    3.6787    1.1968 O.2       1 <0>        -0.4961
     24 N3          0.4051    3.7752    1.3695 N.am      1 <0>        -0.7190
     25 C15         0.3853    5.2400    1.3776 C.3       1 <0>         0.2845
     26 C16        -0.2437    5.7487    0.0789 C.3       1 <0>        -0.1283
     27 C17        -0.2644    7.2785    0.0873 C.3       1 <0>        -0.1225
     28 C18         1.1667    7.8073    0.2022 C.3       1 <0>        -0.1236
     29 C19         1.7956    7.2987    1.5009 C.3       1 <0>        -0.1214
     30 C20         1.8164    5.7688    1.4925 C.3       1 <0>        -0.1192
     31 C21        -0.4064    5.7137    2.5246 C.1       1 <0>         0.2014
     32 N4         -1.0174    6.0792    3.4098 N.1       1 <0>        -0.4053
     33 H3         -1.2348   -3.4072    4.4085 H         1 <0>         0.0596
     34 H4         -0.0835   -4.4497    3.5391 H         1 <0>         0.0659
     35 H5         -0.9968   -3.2026    2.6564 H         1 <0>         0.0613
     36 H6         -2.3933   -5.4328    5.2844 H         1 <0>         0.0652
     37 H7         -1.2618   -6.4864    4.4022 H         1 <0>         0.0759
     38 H8         -3.3768   -7.6782    4.8931 H         1 <0>         0.0702
     39 H9         -3.1618   -7.4640    3.1396 H         1 <0>         0.0690
     40 H10        -4.8522   -5.6826    4.9523 H         1 <0>         0.0652
     41 H11        -5.4811   -6.9152    3.8324 H         1 <0>         0.0760
     42 H12        -5.5733   -4.6452    2.8236 H         1 <0>         0.0764
     43 H13        -4.4663   -5.7096    1.9239 H         1 <0>         0.0916
     44 H14        -3.8204   -3.7606    5.2260 H         1 <0>         0.4413
     45 H15        -4.3492   -0.0132    2.4540 H         1 <0>         0.1450
     46 H16        -4.0559   -0.8399    0.9052 H         1 <0>         0.1434
     47 H17         0.0021   -0.0041    0.0020 H         1 <0>         0.0784
     48 H18         1.0099    1.4631    0.0003 H         1 <0>         0.0851
     49 H19        -0.5399    1.4469   -0.8751 H         1 <0>         0.0784
     50 H20         1.2492    3.3012    1.4321 H         1 <0>         0.4119
     51 H21         0.3426    5.3979   -0.7705 H         1 <0>         0.0874
     52 H22        -1.2632    5.3719   -0.0030 H         1 <0>         0.0938
     53 H23        -0.8507    7.6293    0.9366 H         1 <0>         0.0626
     54 H24        -0.7125    7.6409   -0.8379 H         1 <0>         0.0766
     55 H25         1.1519    8.8972    0.2082 H         1 <0>         0.0695
     56 H26         1.7529    7.4566   -0.6471 H         1 <0>         0.0705
     57 H27         1.2094    7.6494    2.3502 H         1 <0>         0.0645
     58 H28         2.8152    7.6754    1.5828 H         1 <0>         0.0794
     59 H29         2.2644    5.4065    2.4177 H         1 <0>         0.0808
     60 H30         2.4026    5.4181    0.6431 H         1 <0>         0.0954
@<TRIPOS>BOND
     1    1    2 1
     2    1   33 1
     3    1   34 1
     4    1   35 1
     5    2    3 1
     6    2    8 1
     7    2    4 1
     8    4    5 1
     9    4   36 1
    10    4   37 1
    11    5    6 1
    12    5   38 1
    13    5   39 1
    14    6    7 1
    15    6   40 1
    16    6   41 1
    17    7    8 1
    18    7   42 1
    19    7   43 1
    20    8   14 1
    21    8    9 1
    22    9   10 2
    23    9   11 am
    24   11   12 am
    25   11   15 1
    26   12   13 2
    27   12   14 am
    28   14   44 1
    29   15   16 1
    30   15   45 1
    31   15   46 1
    32   16   17 2
    33   16   18 1
    34   18   19 1
    35   19   20 1
    36   19   21 1
    37   19   22 1
    38   21   47 1
    39   21   48 1
    40   21   49 1
    41   22   23 2
    42   22   24 am
    43   24   25 1
    44   24   50 1
    45   25   30 1
    46   25   26 1
    47   25   31 1
    48   26   27 1
    49   26   51 1
    50   26   52 1
    51   27   28 1
    52   27   53 1
    53   27   54 1
    54   28   29 1
    55   28   55 1
    56   28   56 1
    57   29   30 1
    58   29   57 1
    59   29   58 1
    60   30   59 1
    61   30   60 1
    62   31   32 3
@<TRIPOS>MOLECULE
ZINC12424766
   43    45     0     0     0
SMALL
USER_CHARGES
[2-[(2-chloro-4-nitro-phenyl)amino]-2-oxo-ethyl] 2-[(2R)-3-oxo-4H-1,4-benzothiazin-2-yl]acetate
@<TRIPOS>ATOM
      1 C1         -4.0759    2.9549    4.6219 C.ar      1 <0>        -0.0797
      2 C2         -3.1767    1.9882    5.0336 C.ar      1 <0>        -0.1244
      3 C3         -2.6756    1.0795    4.1195 C.ar      1 <0>        -0.0564
      4 C4         -3.0742    1.1425    2.7945 C.ar      1 <0>        -0.1457
      5 C5         -3.9765    2.1175    2.3703 C.ar      1 <0>         0.1557
      6 C6         -4.4759    3.0224    3.3022 C.ar      1 <0>        -0.1384
      7 N1         -4.3865    2.2135    1.0438 N.am      1 <0>        -0.6515
      8 C7         -3.7942    1.6622   -0.0105 C.2       1 <0>         0.5306
      9 O1         -4.3391    1.7509   -1.0906 O.2       1 <0>        -0.5012
     10 C8         -2.4785    0.9325    0.0710 C.3       1 <0>        -0.0896
     11 H1         -2.3791    0.2541   -0.7763 H         1 <0>         0.1629
     12 S1         -2.4422   -0.0172    1.6222 S.3       1 <0>        -0.0473
     13 C9         -1.3289    1.9420    0.0591 C.3       1 <0>        -0.1031
     14 C10        -0.0140    1.2059    0.0429 C.2       1 <0>         0.4743
     15 O2          0.0020   -0.0023    0.0411 O.2       1 <0>        -0.4816
     16 O3          1.1393    1.8923    0.0249 O.3       1 <0>        -0.3296
     17 C11         2.3672    1.1177    0.0038 C.3       1 <0>         0.0517
     18 C12         3.5500    2.0515   -0.0143 C.2       1 <0>         0.5217
     19 O4          3.3752    3.2517   -0.0099 O.2       1 <0>        -0.4818
     20 N2          4.8019    1.5528   -0.0355 N.am      1 <0>        -0.6678
     21 C13         5.8976    2.4168   -0.1469 C.ar      1 <0>         0.2127
     22 C14         5.8598    3.6693    0.4514 C.ar      1 <0>        -0.1112
     23 C15         6.9424    4.5196    0.3396 C.ar      1 <0>        -0.0261
     24 C16         8.0638    4.1253   -0.3673 C.ar      1 <0>        -0.0493
     25 C17         8.1055    2.8791   -0.9646 C.ar      1 <0>        -0.0243
     26 C18         7.0277    2.0209   -0.8518 C.ar      1 <0>        -0.0702
     27 Cl1         7.0832    0.4533   -1.5958 Cl        1 <0>        -0.0274
     28 N3          9.2221    5.0394   -0.4843 N.pl3     1 <0>         0.0289
     29 O5          9.1870    6.1374    0.0416 O.2       1 <0>        -0.1494
     30 O6         10.2104    4.6935   -1.1066 O.3       1 <0>        -0.1528
     31 H2         -4.4678    3.6622    5.3378 H         1 <0>         0.1352
     32 H3         -2.8670    1.9424    6.0672 H         1 <0>         0.1355
     33 H4         -1.9742    0.3226    4.4380 H         1 <0>         0.1374
     34 H5         -5.1790    3.7810    2.9916 H         1 <0>         0.1349
     35 H6         -5.1857    2.7354    0.8714 H         1 <0>         0.4171
     36 H7         -1.3846    2.5667    0.9507 H         1 <0>         0.1176
     37 H8         -1.4052    2.5691   -0.8292 H         1 <0>         0.1296
     38 H9          2.4150    0.4881    0.8923 H         1 <0>         0.1151
     39 H10         2.3859    0.4904   -0.8874 H         1 <0>         0.1142
     40 H11         4.9437    0.5953    0.0266 H         1 <0>         0.4232
     41 H12         4.9848    3.9781    1.0039 H         1 <0>         0.1734
     42 H13         6.9134    5.4937    0.8052 H         1 <0>         0.1669
     43 H14         8.9825    2.5742   -1.5162 H         1 <0>         0.1702
@<TRIPOS>BOND
     1    1    6 ar
     2    1    2 ar
     3    1   31 1
     4    2    3 ar
     5    2   32 1
     6    3    4 ar
     7    3   33 1
     8    4   12 1
     9    4    5 ar
    10    5    6 ar
    11    5    7 1
    12    6   34 1
    13    7    8 am
    14    7   35 1
    15    8    9 2
    16    8   10 1
    17   10   11 1
    18   10   12 1
    19   10   13 1
    20   13   14 1
    21   13   36 1
    22   13   37 1
    23   14   15 2
    24   14   16 1
    25   16   17 1
    26   17   18 1
    27   17   38 1
    28   17   39 1
    29   18   19 2
    30   18   20 am
    31   20   21 1
    32   20   40 1
    33   21   26 ar
    34   21   22 ar
    35   22   23 ar
    36   22   41 1
    37   23   24 ar
    38   23   42 1
    39   24   25 ar
    40   24   28 1
    41   25   26 ar
    42   25   43 1
    43   26   27 1
    44   28   29 2
    45   28   30 1
@<TRIPOS>MOLECULE
ZINC18057172
   50    51     0     0     0
SMALL
USER_CHARGES
2-[[4-[(2,4-dimethylphenyl)sulfamoyl]-2-nitro-phenyl]-methyl-amino]-N-methyl-acetamide
@<TRIPOS>ATOM
      1 C1         -4.9586    3.7370    0.0218 C.3       1 <0>        -0.1167
      2 C2         -3.6436    3.0010    0.0185 C.ar      1 <0>        -0.0908
      3 C3         -2.5960    3.4634   -0.7572 C.ar      1 <0>        -0.0967
      4 C4         -1.3900    2.7909   -0.7632 C.ar      1 <0>        -0.1682
      5 C5         -1.2295    1.6488    0.0115 C.ar      1 <0>         0.1384
      6 C6         -2.2850    1.1845    0.7856 C.ar      1 <0>        -0.0934
      7 C7         -3.4872    1.8647    0.7907 C.ar      1 <0>        -0.0981
      8 C8         -2.1174   -0.0574    1.6227 C.3       1 <0>        -0.1169
      9 N1         -0.0111    0.9658    0.0074 N.pl3     1 <0>        -1.0484
     10 S1          1.4098    1.8080   -0.1120 S.o2      1 <0>         2.6962
     11 O1          2.4576    0.8609    0.0440 O.2       1 <0>        -0.9358
     12 O2          1.2960    2.6357   -1.2614 O.2       1 <0>        -0.9349
     13 C9          1.4946    2.8864    1.2788 C.ar      1 <0>        -0.6840
     14 C10         0.9738    4.1648    1.1934 C.ar      1 <0>         0.0412
     15 C11         1.0336    5.0106    2.2833 C.ar      1 <0>        -0.1702
     16 C12         1.6278    4.5800    3.4629 C.ar      1 <0>         0.2120
     17 C13         2.1549    3.2975    3.5435 C.ar      1 <0>        -0.0436
     18 C14         2.0867    2.4547    2.4513 C.ar      1 <0>         0.0523
     19 N2          2.7884    2.8343    4.7983 N.pl3     1 <0>         0.0216
     20 O3          3.2500    1.7094    4.8683 O.2       1 <0>        -0.1870
     21 O4          2.8481    3.5781    5.7610 O.3       1 <0>        -0.0796
     22 N3          1.6946    5.4347    4.5656 N.pl3     1 <0>        -0.4861
     23 C15         0.3506    5.7635    5.0591 C.3       1 <0>         0.0236
     24 C16         2.4493    6.6529    4.2425 C.3       1 <0>         0.0381
     25 C17         2.7117    7.4313    5.5059 C.2       1 <0>         0.5142
     26 O5          2.3097    7.0125    6.5708 O.2       1 <0>        -0.5035
     27 N4          3.3932    8.5928    5.4526 N.am      1 <0>        -0.7372
     28 C18         3.6483    9.3495    6.6808 C.3       1 <0>         0.0881
     29 H1         -5.6013    3.3361   -0.7619 H         1 <0>         0.0732
     30 H2         -5.4436    3.6101    0.9897 H         1 <0>         0.0673
     31 H3         -4.7821    4.7971   -0.1599 H         1 <0>         0.0680
     32 H4         -2.7215    4.3512   -1.3591 H         1 <0>         0.1312
     33 H5         -0.5727    3.1521   -1.3697 H         1 <0>         0.1609
     34 H6         -4.3072    1.5063    1.3952 H         1 <0>         0.1287
     35 H7         -1.7523    0.2179    2.6121 H         1 <0>         0.0738
     36 H8         -3.0780   -0.5638    1.7178 H         1 <0>         0.0739
     37 H9         -1.4009   -0.7246    1.1436 H         1 <0>         0.0654
     38 H10         0.0026   -0.0020    0.0704 H         1 <0>         0.4299
     39 H11         0.5163    4.5006    0.2745 H         1 <0>         0.1608
     40 H12         0.6228    6.0073    2.2173 H         1 <0>         0.1563
     41 H13         2.4966    1.4574    2.5131 H         1 <0>         0.1735
     42 H14        -0.1610    4.8482    5.3569 H         1 <0>         0.0749
     43 H15         0.4318    6.4301    5.9177 H         1 <0>         0.1071
     44 H16        -0.2162    6.2560    4.2690 H         1 <0>         0.0344
     45 H17         3.3979    6.3806    3.7798 H         1 <0>         0.1074
     46 H18         1.8708    7.2661    3.5515 H         1 <0>         0.0762
     47 H19         3.7148    8.9278    4.6009 H         1 <0>         0.4015
     48 H20         2.6997    9.6218    7.1435 H         1 <0>         0.0611
     49 H21         4.2268    8.7363    7.3718 H         1 <0>         0.0630
     50 H22         4.2083   10.2534    6.4410 H         1 <0>         0.0769
@<TRIPOS>BOND
     1    1    2 1
     2    1   29 1
     3    1   30 1
     4    1   31 1
     5    2    7 ar
     6    2    3 ar
     7    3    4 ar
     8    3   32 1
     9    4    5 ar
    10    4   33 1
    11    5    6 ar
    12    5    9 1
    13    6    7 ar
    14    6    8 1
    15    7   34 1
    16    8   35 1
    17    8   36 1
    18    8   37 1
    19    9   10 1
    20    9   38 1
    21   10   11 2
    22   10   12 2
    23   10   13 1
    24   13   18 ar
    25   13   14 ar
    26   14   15 ar
    27   14   39 1
    28   15   16 ar
    29   15   40 1
    30   16   17 ar
    31   16   22 1
    32   17   18 ar
    33   17   19 1
    34   18   41 1
    35   19   20 2
    36   19   21 1
    37   22   23 1
    38   22   24 1
    39   23   42 1
    40   23   43 1
    41   23   44 1
    42   24   25 1
    43   24   45 1
    44   24   46 1
    45   25   26 2
    46   25   27 am
    47   27   28 1
    48   27   47 1
    49   28   48 1
    50   28   49 1
    51   28   50 1
@<TRIPOS>MOLECULE
ZINC22138951
   65    66     0     0     0
SMALL
USER_CHARGES

@<TRIPOS>ATOM
      1 C1         -0.1589    1.4711   -0.0477 C.3       1 <0>        -0.1477
      2 C2         -0.0848   -0.0569   -0.0267 C.3       1 <0>        -0.0915
      3 H1          0.4256   -0.4085   -0.9233 H         1 <0>         0.0756
      4 C3         -1.5012   -0.6363    0.0149 C.3       1 <0>        -0.1103
      5 C4         -1.4279   -2.1587    0.0571 C.3       1 <0>         0.1314
      6 C5         -0.6417   -2.6275    1.2765 C.3       1 <0>        -0.1050
      7 C6          0.7717   -2.0409    1.2304 C.3       1 <0>        -0.0603
      8 C7          0.6882   -0.5132    1.2124 C.3       1 <0>        -0.1094
      9 C8          1.5530   -2.4947    2.4651 C.3       1 <0>        -0.1415
     10 C9          1.4851   -2.5275   -0.0326 C.3       1 <0>        -0.1615
     11 C10        -2.8169   -2.7541    0.0637 C.2       1 <0>         0.5360
     12 O1         -3.6795   -2.5954    0.9007 O.2       1 <0>        -0.4532
     13 N1         -2.8950   -3.4989   -1.0585 N.am      1 <0>        -0.5682
     14 C11        -1.7565   -3.4527   -1.7611 C.2       1 <0>         0.7043
     15 O2         -1.5851   -4.0424   -2.8099 O.2       1 <0>        -0.5379
     16 N2         -0.8227   -2.6786   -1.1758 N.am      1 <0>        -0.7156
     17 C12        -4.0787   -4.2639   -1.4583 C.3       1 <0>         0.1297
     18 C13        -4.9719   -3.3988   -2.3097 C.2       1 <0>         0.4536
     19 O3         -4.6524   -2.2601   -2.5572 O.2       1 <0>        -0.4917
     20 O4         -6.1223   -3.8932   -2.7932 O.3       1 <0>        -0.3177
     21 C14        -6.9197   -3.0175   -3.5928 C.3       1 <0>         0.0711
     22 H2         -6.7655   -1.9883   -3.2686 H         1 <0>         0.1128
     23 C15        -6.5132   -3.1559   -5.0613 C.3       1 <0>        -0.1682
     24 C16        -8.3741   -3.3804   -3.4378 C.2       1 <0>         0.5206
     25 O5         -8.6961   -4.2987   -2.7139 O.2       1 <0>        -0.4975
     26 N3         -9.3169   -2.6846   -4.1036 N.am      1 <0>        -0.7170
     27 C17       -10.7308   -3.0375   -3.9529 C.3       1 <0>         0.2856
     28 C18       -10.9472   -4.4821   -4.4080 C.3       1 <0>        -0.1695
     29 C19       -11.1219   -2.9043   -2.5401 C.1       1 <0>         0.1990
     30 N4        -11.4237   -2.8015   -1.4498 N.1       1 <0>        -0.4045
     31 C20       -11.5845   -2.0998   -4.8090 C.3       1 <0>        -0.0940
     32 C21       -11.2658   -2.3277   -6.2880 C.3       1 <0>        -0.1521
     33 C22       -13.0661   -2.3860   -4.5565 C.3       1 <0>        -0.1539
     34 H3          0.8497    1.8835   -0.0769 H         1 <0>         0.0600
     35 H4         -0.7099    1.7960   -0.9303 H         1 <0>         0.0570
     36 H5         -0.6693    1.8225    0.8490 H         1 <0>         0.0585
     37 H6         -2.0164   -0.2727    0.9040 H         1 <0>         0.0910
     38 H7         -2.0478   -0.3235   -0.8748 H         1 <0>         0.0781
     39 H8         -1.1445   -2.2924    2.1837 H         1 <0>         0.0923
     40 H9         -0.5834   -3.7159    1.2746 H         1 <0>         0.0777
     41 H10         1.6943   -0.0947    1.1872 H         1 <0>         0.0718
     42 H11         0.1738   -0.1673    2.1090 H         1 <0>         0.0710
     43 H12         1.6117   -3.5831    2.4781 H         1 <0>         0.0581
     44 H13         2.5593   -2.0770    2.4321 H         1 <0>         0.0609
     45 H14         1.0448   -2.1474    3.3646 H         1 <0>         0.0589
     46 H15         1.2620   -1.8525   -0.8588 H         1 <0>         0.0621
     47 H16         2.5609   -2.5452    0.1418 H         1 <0>         0.0663
     48 H17         1.1407   -3.5315   -0.2804 H         1 <0>         0.0656
     49 H18         0.0726   -2.5001   -1.5035 H         1 <0>         0.4436
     50 H19        -3.7697   -5.1396   -2.0291 H         1 <0>         0.1461
     51 H20        -4.6225   -4.5831   -0.5692 H         1 <0>         0.1433
     52 H21        -6.6673   -4.1851   -5.3855 H         1 <0>         0.0787
     53 H22        -7.1213   -2.4879   -5.6712 H         1 <0>         0.0833
     54 H23        -5.4612   -2.8934   -5.1734 H         1 <0>         0.0784
     55 H24        -9.0594   -1.9502   -4.6826 H         1 <0>         0.4111
     56 H25       -10.3390   -5.1501   -3.7981 H         1 <0>         0.0867
     57 H26       -11.9992   -4.7446   -4.2959 H         1 <0>         0.0792
     58 H27       -10.6576   -4.5807   -5.4542 H         1 <0>         0.0846
     59 H28       -11.3641   -1.0654   -4.5451 H         1 <0>         0.0878
     60 H29       -11.4861   -3.3621   -6.5519 H         1 <0>         0.0699
     61 H30       -11.8740   -1.6597   -6.8979 H         1 <0>         0.0692
     62 H31       -10.2103   -2.1238   -6.4678 H         1 <0>         0.0598
     63 H32       -13.2931   -2.2236   -3.5029 H         1 <0>         0.0571
     64 H33       -13.6743   -1.7180   -5.1664 H         1 <0>         0.0718
     65 H34       -13.2864   -3.4204   -4.8204 H         1 <0>         0.0685
@<TRIPOS>BOND
     1    1    2 1
     2    1   34 1
     3    1   35 1
     4    1   36 1
     5    2    3 1
     6    2    8 1
     7    2    4 1
     8    4    5 1
     9    4   37 1
    10    4   38 1
    11    5   16 1
    12    5    6 1
    13    5   11 1
    14    6    7 1
    15    6   39 1
    16    6   40 1
    17    7    8 1
    18    7    9 1
    19    7   10 1
    20    8   41 1
    21    8   42 1
    22    9   43 1
    23    9   44 1
    24    9   45 1
    25   10   46 1
    26   10   47 1
    27   10   48 1
    28   11   12 2
    29   11   13 am
    30   13   14 am
    31   13   17 1
    32   14   15 2
    33   14   16 am
    34   16   49 1
    35   17   18 1
    36   17   50 1
    37   17   51 1
    38   18   19 2
    39   18   20 1
    40   20   21 1
    41   21   22 1
    42   21   23 1
    43   21   24 1
    44   23   52 1
    45   23   53 1
    46   23   54 1
    47   24   25 2
    48   24   26 am
    49   26   27 1
    50   26   55 1
    51   27   28 1
    52   27   29 1
    53   27   31 1
    54   28   56 1
    55   28   57 1
    56   28   58 1
    57   29   30 3
    58   31   32 1
    59   31   33 1
    60   31   59 1
    61   32   60 1
    62   32   61 1
    63   32   62 1
    64   33   63 1
    65   33   64 1
    66   33   65 1
@<TRIPOS>MOLECULE
ZINC00934322
   38    39     0     0     0
SMALL
USER_CHARGES
methyl 4-[(4-nitrobenzoyl)thiocarbamoylamino]benzoate
@<TRIPOS>ATOM
      1 C1          3.2210  -12.4997    1.4121 C.3       1 <0>         0.0363
      2 O1          3.1501  -11.0499    1.3746 O.3       1 <0>        -0.3534
      3 C2          3.7543  -10.4345    0.3392 C.2       1 <0>         0.5086
      4 O2          4.3247  -11.0914   -0.5091 O.2       1 <0>        -0.5036
      5 C3          3.7231   -8.9641    0.2356 C.ar      1 <0>        -0.1200
      6 C4          4.3495   -8.3238   -0.8381 C.ar      1 <0>        -0.0446
      7 C5          4.3181   -6.9511   -0.9319 C.ar      1 <0>        -0.1310
      8 C6          3.6639   -6.2003    0.0404 C.ar      1 <0>         0.1570
      9 C7          3.0439   -6.8340    1.1133 C.ar      1 <0>        -0.0889
     10 C8          3.0668   -8.2067    1.2106 C.ar      1 <0>        -0.0495
     11 N1          3.6345   -4.8109   -0.0575 N.pl3     1 <0>        -0.6213
     12 C9          2.4986   -4.1398    0.2180 C.2       1 <0>         0.5041
     13 S1          1.0556   -4.9993    0.5497 S.2       1 <0>        -0.4584
     14 N2          2.4987   -2.7921    0.2323 N.am      1 <0>        -0.6374
     15 C10         1.3628   -2.1211    0.5078 C.2       1 <0>         0.5329
     16 O3          0.3385   -2.7311    0.7432 O.2       1 <0>        -0.3828
     17 C11         1.3629   -0.6434    0.5235 C.ar      1 <0>        -0.0855
     18 C12         0.1880    0.0548    0.8085 C.ar      1 <0>        -0.0515
     19 C13         0.1952    1.4342    0.8219 C.ar      1 <0>        -0.0549
     20 C14         1.3633    2.1257    0.5538 C.ar      1 <0>        -0.0178
     21 C15         2.5312    1.4399    0.2706 C.ar      1 <0>        -0.0575
     22 C16         2.5380    0.0606    0.2539 C.ar      1 <0>        -0.0905
     23 N3          1.3635    3.6058    0.5700 N.pl3     1 <0>         0.0201
     24 O4          0.3370    4.2123    0.8189 O.2       1 <0>        -0.1447
     25 O5          2.3902    4.2173    0.3344 O.3       1 <0>        -0.1481
     26 H1          2.7555  -12.9096    0.5157 H         1 <0>         0.0653
     27 H2          4.2646  -12.8115    1.4546 H         1 <0>         0.0650
     28 H3          2.6960  -12.8664    2.2942 H         1 <0>         0.1050
     29 H4          4.8571   -8.9058   -1.5931 H         1 <0>         0.1457
     30 H5          4.8014   -6.4560   -1.7611 H         1 <0>         0.1378
     31 H6          2.5406   -6.2481    1.8682 H         1 <0>         0.1487
     32 H7          2.5820   -8.6980    2.0412 H         1 <0>         0.1469
     33 H8          4.4315   -4.3265   -0.3239 H         1 <0>         0.4114
     34 H9          3.3163   -2.3052    0.0444 H         1 <0>         0.4112
     35 H10        -0.7243   -0.4837    1.0182 H         1 <0>         0.1671
     36 H11        -0.7140    1.9757    1.0378 H         1 <0>         0.1670
     37 H12         3.4394    1.9858    0.0619 H         1 <0>         0.1641
     38 H13         3.4504   -0.4735    0.0330 H         1 <0>         0.1471
@<TRIPOS>BOND
     1    1    2 1
     2    1   26 1
     3    1   27 1
     4    1   28 1
     5    2    3 1
     6    3    4 2
     7    3    5 1
     8    5   10 ar
     9    5    6 ar
    10    6    7 ar
    11    6   29 1
    12    7    8 ar
    13    7   30 1
    14    8    9 ar
    15    8   11 1
    16    9   10 ar
    17    9   31 1
    18   10   32 1
    19   11   12 1
    20   11   33 1
    21   12   13 2
    22   12   14 1
    23   14   15 am
    24   14   34 1
    25   15   16 2
    26   15   17 1
    27   17   22 ar
    28   17   18 ar
    29   18   19 ar
    30   18   35 1
    31   19   20 ar
    32   19   36 1
    33   20   21 ar
    34   20   23 1
    35   21   22 ar
    36   21   37 1
    37   22   38 1
    38   23   24 2
    39   23   25 1
@<TRIPOS>MOLECULE
ZINC08229710
   47    48     0     0     0
SMALL
USER_CHARGES
2-[1-(4-butylphenyl)tetrazol-5-yl]sulfanyl-N-(methylcarbamoyl)propanamide
@<TRIPOS>ATOM
      1 C1        -11.7434   -6.5550   -2.3050 C.3       1 <0>        -0.1549
      2 C2        -10.7708   -5.6778   -3.0958 C.3       1 <0>        -0.1255
      3 C3         -9.3611   -5.8336   -2.5218 C.3       1 <0>        -0.1157
      4 C4         -8.3885   -4.9563   -3.3126 C.3       1 <0>        -0.0864
      5 C5         -7.0001   -5.1098   -2.7471 C.ar      1 <0>        -0.0606
      6 C6         -6.1578   -6.0885   -3.2419 C.ar      1 <0>        -0.0989
      7 C7         -4.8848   -6.2316   -2.7257 C.ar      1 <0>        -0.0872
      8 C8         -4.4510   -5.3916   -1.7090 C.ar      1 <0>         0.1104
      9 C9         -5.3008   -4.4134   -1.2106 C.ar      1 <0>        -0.1077
     10 C10        -6.5711   -4.2720   -1.7342 C.ar      1 <0>        -0.0926
     11 N1         -3.1593   -5.5348   -1.1825 N.pl3     1 <0>        -0.3095
     12 C11        -2.3325   -4.5481   -0.7368 C.2       1 <0>         0.2017
     13 N2         -1.2223   -5.1300   -0.3365 N.2       1 <0>        -0.3274
     14 N3         -1.2991   -6.4022   -0.4919 N.2       1 <0>        -0.0254
     15 N4         -2.4374   -6.7276   -1.0011 N.2       1 <0>        -0.0659
     16 S1         -2.6805   -2.8211   -0.7087 S.3       1 <0>         0.1293
     17 C12        -1.1354   -2.2006    0.0011 C.3       1 <0>        -0.1267
     18 H1         -0.2944   -2.5493   -0.5983 H         1 <0>         0.1354
     19 C13        -0.9890   -2.7166    1.4340 C.3       1 <0>        -0.1487
     20 C14        -1.1558   -0.6938    0.0094 C.2       1 <0>         0.5440
     21 O1         -2.2138   -0.1020    0.0226 O.2       1 <0>        -0.4467
     22 N5          0.0021   -0.0041    0.0020 N.am      1 <0>        -0.6835
     23 C15        -0.0162    1.3436    0.0094 C.2       1 <0>         0.6928
     24 O2         -1.0769    1.9369    0.0177 O.2       1 <0>        -0.5239
     25 N6          1.1417    2.0332    0.0021 N.am      1 <0>        -0.7390
     26 C16         1.1218    3.4981    0.0101 C.3       1 <0>         0.1015
     27 H2        -11.7411   -6.2484   -1.2591 H         1 <0>         0.0541
     28 H3        -12.7476   -6.4440   -2.7140 H         1 <0>         0.0549
     29 H4        -11.4343   -7.5977   -2.3786 H         1 <0>         0.0539
     30 H5        -11.0798   -4.6351   -3.0222 H         1 <0>         0.0630
     31 H6        -10.7730   -5.9844   -4.1418 H         1 <0>         0.0626
     32 H7         -9.0521   -6.8763   -2.5954 H         1 <0>         0.0650
     33 H8         -9.3588   -5.5269   -1.4758 H         1 <0>         0.0653
     34 H9         -8.6976   -3.9137   -3.2390 H         1 <0>         0.0792
     35 H10        -8.3908   -5.2630   -4.3585 H         1 <0>         0.0784
     36 H11        -6.4959   -6.7419   -4.0326 H         1 <0>         0.1391
     37 H12        -4.2275   -6.9964   -3.1123 H         1 <0>         0.1385
     38 H13        -4.9677   -3.7614   -0.4166 H         1 <0>         0.1396
     39 H14        -7.2312   -3.5087   -1.3494 H         1 <0>         0.1413
     40 H15        -0.0586   -2.3429    1.8615 H         1 <0>         0.0798
     41 H16        -1.8300   -2.3679    2.0334 H         1 <0>         0.0771
     42 H17        -0.9743   -3.8064    1.4280 H         1 <0>         0.0934
     43 H18         0.8486   -0.4776   -0.0086 H         1 <0>         0.4140
     44 H19         1.9882    1.5597   -0.0085 H         1 <0>         0.4020
     45 H20         0.5946    3.8592   -0.8729 H         1 <0>         0.0637
     46 H21         0.6116    3.8496    0.9069 H         1 <0>         0.0637
     47 H22         2.1444    3.8754    0.0024 H         1 <0>         0.0825
@<TRIPOS>BOND
     1    1    2 1
     2    1   27 1
     3    1   28 1
     4    1   29 1
     5    2    3 1
     6    2   30 1
     7    2   31 1
     8    3    4 1
     9    3   32 1
    10    3   33 1
    11    4    5 1
    12    4   34 1
    13    4   35 1
    14    5   10 ar
    15    5    6 ar
    16    6    7 ar
    17    6   36 1
    18    7    8 ar
    19    7   37 1
    20    8    9 ar
    21    8   11 1
    22    9   10 ar
    23    9   38 1
    24   10   39 1
    25   11   15 1
    26   11   12 1
    27   12   13 2
    28   12   16 1
    29   13   14 1
    30   14   15 2
    31   16   17 1
    32   17   18 1
    33   17   19 1
    34   17   20 1
    35   19   40 1
    36   19   41 1
    37   19   42 1
    38   20   21 2
    39   20   22 am
    40   22   23 am
    41   22   43 1
    42   23   24 2
    43   23   25 am
    44   25   26 1
    45   25   44 1
    46   26   45 1
    47   26   46 1
    48   26   47 1
@<TRIPOS>MOLECULE
ZINC10015078
   49    51     0     0     0
SMALL
USER_CHARGES

@<TRIPOS>ATOM
      1 C1         -0.0187    1.5258    0.0104 C.3       1 <0>        -0.1464
      2 C2          0.0021   -0.0041    0.0020 C.3       1 <0>        -0.1180
      3 H1          0.5123   -0.3556   -0.8948 H         1 <0>         0.1288
      4 C3         -1.4117   -0.5257    0.0127 C.2       1 <0>         0.5444
      5 O1         -1.9388   -0.8270    1.0621 O.2       1 <0>        -0.4463
      6 N1         -2.0902   -0.6573   -1.1443 N.am      1 <0>        -0.6844
      7 C4         -3.3547   -1.1238   -1.1348 C.2       1 <0>         0.6929
      8 O2         -3.8830   -1.4258   -0.0827 O.2       1 <0>        -0.5247
      9 N2         -4.0332   -1.2553   -2.2918 N.am      1 <0>        -0.7396
     10 C5         -5.4076   -1.7624   -2.2814 C.3       1 <0>         0.1018
     11 S1          0.8794   -0.6050    1.4716 S.3       1 <0>         0.0862
     12 C6          2.5331   -0.0421    1.2407 C.2       1 <0>         0.1563
     13 N3          2.9831    0.6572    0.2233 N.2       1 <0>        -0.2844
     14 N4          4.2364    0.8987    0.3719 N.2       1 <0>        -0.2498
     15 C7          4.6655    0.3675    1.4958 C.2       1 <0>         0.2612
     16 N5          3.5847   -0.2467    2.0895 N.pl3     1 <0>        -0.4459
     17 C8          3.5669   -0.9709    3.3629 C.3       1 <0>         0.1309
     18 C9          3.1355   -2.4186    3.1203 C.3       1 <0>        -0.1340
     19 C10         3.1170   -3.1749    4.4502 C.3       1 <0>        -0.1130
     20 C11         2.1298   -2.5019    5.4059 C.3       1 <0>        -0.1270
     21 C12         2.5612   -1.0541    5.6485 C.3       1 <0>        -0.1130
     22 C13         2.5798   -0.2978    4.3186 C.3       1 <0>        -0.1353
     23 C14         6.0381    0.4238    2.0224 C.2       1 <0>         0.0357
     24 C15         7.0230    1.2658    1.6005 C.2       1 <0>        -0.1319
     25 C16         8.1630    0.9760    2.3749 C.2       1 <0>        -0.2109
     26 C17         7.8244   -0.0163    3.2219 C.2       1 <0>        -0.0142
     27 O3          6.5390   -0.3442    3.0101 O.3       1 <0>        -0.1753
     28 H2          1.0039    1.9031    0.0027 H         1 <0>         0.0918
     29 H3         -0.5459    1.8868   -0.8726 H         1 <0>         0.0752
     30 H4         -0.5289    1.8773    0.9072 H         1 <0>         0.0755
     31 H5         -1.6686   -0.4162   -1.9840 H         1 <0>         0.4132
     32 H6         -3.6115   -1.0143   -3.1315 H         1 <0>         0.4017
     33 H7         -5.4220   -2.7643   -1.8523 H         1 <0>         0.0633
     34 H8         -6.0341   -1.1016   -1.6824 H         1 <0>         0.0634
     35 H9         -5.7892   -1.7986   -3.3018 H         1 <0>         0.0821
     36 H10         4.5644   -0.9577    3.8023 H         1 <0>         0.1162
     37 H11         2.1381   -2.4317    2.6810 H         1 <0>         0.0822
     38 H12         3.8388   -2.8981    2.4394 H         1 <0>         0.0726
     39 H13         2.8096   -4.2063    4.2774 H         1 <0>         0.0754
     40 H14         4.1144   -3.1618    4.8896 H         1 <0>         0.0676
     41 H15         1.1324   -2.5150    4.9666 H         1 <0>         0.0696
     42 H16         2.1166   -3.0407    6.3534 H         1 <0>         0.0712
     43 H17         1.8580   -0.5747    6.3294 H         1 <0>         0.0760
     44 H18         3.5587   -1.0410    6.0879 H         1 <0>         0.0670
     45 H19         2.8871    0.7335    4.4915 H         1 <0>         0.0727
     46 H20         1.5823   -0.3110    3.8793 H         1 <0>         0.0842
     47 H21         6.9447    2.0108    0.8226 H         1 <0>         0.1625
     48 H22         9.1269    1.4578    2.3034 H         1 <0>         0.1598
     49 H23         8.4773   -0.4700    3.9528 H         1 <0>         0.2128
@<TRIPOS>BOND
     1    1    2 1
     2    1   28 1
     3    1   29 1
     4    1   30 1
     5    2    3 1
     6    2    4 1
     7    2   11 1
     8    4    5 2
     9    4    6 am
    10    6    7 am
    11    6   31 1
    12    7    8 2
    13    7    9 am
    14    9   10 1
    15    9   32 1
    16   10   33 1
    17   10   34 1
    18   10   35 1
    19   11   12 1
    20   12   16 1
    21   12   13 2
    22   13   14 1
    23   14   15 2
    24   15   16 1
    25   15   23 1
    26   16   17 1
    27   17   22 1
    28   17   18 1
    29   17   36 1
    30   18   19 1
    31   18   37 1
    32   18   38 1
    33   19   20 1
    34   19   39 1
    35   19   40 1
    36   20   21 1
    37   20   41 1
    38   20   42 1
    39   21   22 1
    40   21   43 1
    41   21   44 1
    42   22   45 1
    43   22   46 1
    44   23   27 1
    45   23   24 2
    46   24   25 1
    47   24   47 1
    48   25   26 2
    49   25   48 1
    50   26   27 1
    51   26   49 1
@<TRIPOS>MOLECULE
ZINC07080912
   52    54     0     0     0
SMALL
USER_CHARGES

@<TRIPOS>ATOM
      1 C1         -0.0187    1.5258    0.0104 C.3       1 <0>        -0.1537
      2 C2          0.0021   -0.0041    0.0020 C.3       1 <0>        -0.1256
      3 C3          0.7182   -0.4975   -1.2568 C.3       1 <0>         0.1735
      4 C4         -0.0218    0.0093   -2.4963 C.3       1 <0>        -0.1652
      5 C5          2.1536    0.0321   -1.2676 C.3       1 <0>        -0.1657
      6 N1          0.7381   -1.9623   -1.2648 N.am      1 <0>        -0.7200
      7 C6          1.3211   -2.6228   -2.2848 C.2       1 <0>         0.5046
      8 O1          1.8293   -2.0044   -3.1960 O.2       1 <0>        -0.5208
      9 C7          1.3415   -4.1296   -2.2931 C.3       1 <0>         0.0971
     10 N2          2.0272   -4.6021   -3.4984 N.am      1 <0>        -0.5604
     11 C8          1.4117   -4.8513   -4.6711 C.2       1 <0>         0.5385
     12 O2          0.2308   -4.7314   -4.9183 O.2       1 <0>        -0.4571
     13 C9          2.5029   -5.3118   -5.6170 C.3       1 <0>         0.1298
     14 N3          3.7210   -5.2641   -4.7899 N.am      1 <0>        -0.7153
     15 C10         3.3428   -4.8339   -3.5726 C.2       1 <0>         0.7094
     16 O3          4.1100   -4.6767   -2.6432 O.2       1 <0>        -0.5374
     17 C11         2.6224   -4.3571   -6.8067 C.3       1 <0>        -0.1528
     18 C12         2.2330   -6.7397   -6.0959 C.3       1 <0>        -0.0698
     19 C13         3.3913   -7.2157   -6.9342 C.ar      1 <0>        -0.0780
     20 C14         3.3900   -6.9982   -8.2995 C.ar      1 <0>        -0.0988
     21 C15         4.4504   -7.4325   -9.0727 C.ar      1 <0>        -0.0964
     22 C16         5.5176   -8.0880   -8.4804 C.ar      1 <0>         0.0346
     23 C17         5.5189   -8.3072   -7.1051 C.ar      1 <0>         0.0362
     24 C18         4.4554   -7.8640   -6.3356 C.ar      1 <0>        -0.0971
     25 O4          6.6671   -8.9646   -6.7692 O.3       1 <0>        -0.3071
     26 C19         7.1751   -9.5061   -8.0029 C.3       1 <0>         0.2129
     27 O5          6.6650   -8.6080   -9.0061 O.3       1 <0>        -0.3076
     28 H1          1.0039    1.9031    0.0027 H         1 <0>         0.0612
     29 H2         -0.5459    1.8868   -0.8726 H         1 <0>         0.0612
     30 H3         -0.5289    1.8773    0.9072 H         1 <0>         0.0593
     31 H4          0.5293   -0.3651    0.8851 H         1 <0>         0.0692
     32 H5         -1.0205   -0.3814    0.0098 H         1 <0>         0.0691
     33 H6         -0.0366    1.0992   -2.4903 H         1 <0>         0.0676
     34 H7          0.4884   -0.3422   -3.3931 H         1 <0>         0.0759
     35 H8         -1.0444   -0.3679   -2.4886 H         1 <0>         0.0545
     36 H9          2.6808   -0.3290   -0.3846 H         1 <0>         0.0547
     37 H10         2.6638   -0.3194   -2.1644 H         1 <0>         0.0761
     38 H11         2.1388    1.1220   -1.2617 H         1 <0>         0.0675
     39 H12         0.3316   -2.4569   -0.5361 H         1 <0>         0.4011
     40 H13         1.8687   -4.4907   -1.4101 H         1 <0>         0.1284
     41 H14         0.3189   -4.5069   -2.2854 H         1 <0>         0.1262
     42 H15         4.6207   -5.4950   -5.0693 H         1 <0>         0.4405
     43 H16         2.8532   -3.3546   -6.4463 H         1 <0>         0.0734
     44 H17         3.4193   -4.6981   -7.4676 H         1 <0>         0.0845
     45 H18         1.6798   -4.3385   -7.3537 H         1 <0>         0.0861
     46 H19         2.1147   -7.3958   -5.2336 H         1 <0>         0.0885
     47 H20         1.3213   -6.7564   -6.6930 H         1 <0>         0.1074
     48 H21         2.5585   -6.4880   -8.7631 H         1 <0>         0.1432
     49 H22         4.4467   -7.2612  -10.1390 H         1 <0>         0.1391
     50 H23         4.4559   -8.0287   -5.2683 H         1 <0>         0.1363
     51 H24         8.2651   -9.5014   -8.0032 H         1 <0>         0.1341
     52 H25         6.7954  -10.5151   -8.1634 H         1 <0>         0.0867
@<TRIPOS>BOND
     1    1    2 1
     2    1   28 1
     3    1   29 1
     4    1   30 1
     5    2    3 1
     6    2   31 1
     7    2   32 1
     8    3    4 1
     9    3    5 1
    10    3    6 1
    11    4   33 1
    12    4   34 1
    13    4   35 1
    14    5   36 1
    15    5   37 1
    16    5   38 1
    17    6    7 am
    18    6   39 1
    19    7    8 2
    20    7    9 1
    21    9   10 1
    22    9   40 1
    23    9   41 1
    24   10   15 am
    25   10   11 am
    26   11   12 2
    27   11   13 1
    28   13   14 1
    29   13   17 1
    30   13   18 1
    31   14   15 am
    32   14   42 1
    33   15   16 2
    34   17   43 1
    35   17   44 1
    36   17   45 1
    37   18   19 1
    38   18   46 1
    39   18   47 1
    40   19   24 ar
    41   19   20 ar
    42   20   21 ar
    43   20   48 1
    44   21   22 ar
    45   21   49 1
    46   22   27 1
    47   22   23 ar
    48   23   24 ar
    49   23   25 1
    50   24   50 1
    51   25   26 1
    52   26   27 1
    53   26   51 1
    54   26   52 1
@<TRIPOS>MOLECULE
ZINC52894629
   50    53     0     0     0
SMALL
USER_CHARGES

@<TRIPOS>ATOM
      1 C1         -0.0157    1.3058    0.0092 C.2       1 <0>        -0.1389
      2 C2          0.0021   -0.0041    0.0020 C.2       1 <0>        -0.1965
      3 C3          1.3172   -0.7397   -0.0145 C.3       1 <0>         0.1480
      4 N1          1.3674   -1.6756    1.1115 N.pl3     1 <0>        -0.3533
      5 C4          1.8267   -1.4334    2.3620 C.2       1 <0>         0.2003
      6 N2          1.6862   -2.5469    3.0480 N.2       1 <0>        -0.3395
      7 N3          1.1718   -3.4660    2.3132 N.2       1 <0>        -0.0304
      8 N4          0.9434   -3.0159    1.1270 N.2       1 <0>        -0.0738
      9 S1          2.4885    0.0870    2.9579 S.3       1 <0>         0.1171
     10 C5          2.9073   -0.2647    4.6875 C.3       1 <0>        -0.1561
     11 C6          3.4915    0.9700    5.3240 C.2       1 <0>         0.5427
     12 O1          3.6133    1.9868    4.6750 O.2       1 <0>        -0.4477
     13 N5          3.8785    0.9440    6.6148 N.am      1 <0>        -0.6860
     14 C7          4.4010    2.0483    7.1840 C.2       1 <0>         0.6966
     15 O2          4.5231    3.0676    6.5334 O.2       1 <0>        -0.5180
     16 N6          4.7881    2.0223    8.4747 N.am      1 <0>        -0.7303
     17 C8          5.3560    3.2227    9.0935 C.3       1 <0>         0.1996
     18 C9          6.6196    3.6372    8.3370 C.3       1 <0>        -0.1241
     19 C10         7.2127    4.8909    8.9832 C.3       1 <0>        -0.0822
     20 C11         7.5659    4.5942   10.4420 C.3       1 <0>        -0.1120
     21 C12         6.3023    4.1796   11.1985 C.3       1 <0>        -0.0800
     22 C13         5.7092    2.9260   10.5523 C.3       1 <0>        -0.1140
     23 C14         5.2786    5.3153   11.1424 C.3       1 <0>        -0.1120
     24 C15         4.9254    5.6120    9.6836 C.3       1 <0>        -0.0822
     25 C16         6.1890    6.0265    8.9271 C.3       1 <0>        -0.1104
     26 C17         4.3323    4.3584    9.0374 C.3       1 <0>        -0.1240
     27 H1          0.9122    1.8585    0.0033 H         1 <0>         0.1072
     28 H2         -0.9582    1.8330    0.0166 H         1 <0>         0.1127
     29 H3         -0.9258   -0.5567    0.0079 H         1 <0>         0.1218
     30 H4          1.4134   -1.2911   -0.9498 H         1 <0>         0.1218
     31 H5          2.1349   -0.0241    0.0711 H         1 <0>         0.1121
     32 H6          2.0071   -0.5601    5.2265 H         1 <0>         0.1381
     33 H7          3.6366   -1.0738    4.7275 H         1 <0>         0.1381
     34 H8          3.7811    0.1305    7.1340 H         1 <0>         0.4133
     35 H9          4.6906    1.2088    8.9940 H         1 <0>         0.3981
     36 H10         7.3489    2.8282    8.3769 H         1 <0>         0.0602
     37 H11         6.3679    3.8486    7.2977 H         1 <0>         0.0871
     38 H12         8.1129    5.1862    8.4442 H         1 <0>         0.0734
     39 H13         8.2952    3.7851   10.4819 H         1 <0>         0.0628
     40 H14         7.9884    5.4873   10.9023 H         1 <0>         0.0659
     41 H15         6.5539    3.9683   12.2378 H         1 <0>         0.0764
     42 H16         4.8089    2.6307   11.0913 H         1 <0>         0.0698
     43 H17         6.4385    2.1169   10.5923 H         1 <0>         0.0698
     44 H18         4.3783    5.0200   11.6814 H         1 <0>         0.0628
     45 H19         5.7011    6.2084   11.6028 H         1 <0>         0.0659
     46 H20         4.1961    6.4211    9.6436 H         1 <0>         0.0734
     47 H21         6.6115    6.9196    9.3874 H         1 <0>         0.0636
     48 H22         5.9373    6.2379    7.8878 H         1 <0>         0.0658
     49 H23         4.0806    4.5697    7.9981 H         1 <0>         0.0871
     50 H24         3.4320    4.0630    9.5763 H         1 <0>         0.0601
@<TRIPOS>BOND
     1    1    2 2
     2    1   27 1
     3    1   28 1
     4    2    3 1
     5    2   29 1
     6    3    4 1
     7    3   30 1
     8    3   31 1
     9    4    8 1
    10    4    5 1
    11    5    6 2
    12    5    9 1
    13    6    7 1
    14    7    8 2
    15    9   10 1
    16   10   11 1
    17   10   32 1
    18   10   33 1
    19   11   12 2
    20   11   13 am
    21   13   14 am
    22   13   34 1
    23   14   15 2
    24   14   16 am
    25   16   17 1
    26   16   35 1
    27   17   22 1
    28   17   26 1
    29   17   18 1
    30   18   19 1
    31   18   36 1
    32   18   37 1
    33   19   25 1
    34   19   20 1
    35   19   38 1
    36   20   21 1
    37   20   39 1
    38   20   40 1
    39   21   22 1
    40   21   23 1
    41   21   41 1
    42   22   42 1
    43   22   43 1
    44   23   24 1
    45   23   44 1
    46   23   45 1
    47   24   25 1
    48   24   26 1
    49   24   46 1
    50   25   47 1
    51   25   48 1
    52   26   49 1
    53   26   50 1
@<TRIPOS>MOLECULE
ZINC04538396
   44    46     0     0     0
SMALL
USER_CHARGES
2-[[4-amino-5-(2-furyl)-1,2,4-triazol-3-yl]sulfanyl]-1-(2-ethyl-1-piperidyl)-ethanone
@<TRIPOS>ATOM
      1 C1         -7.7788   10.1610   -0.1112 C.3       1 <0>        -0.1596
      2 C2         -6.9684    8.8635   -0.0871 C.3       1 <0>        -0.1186
      3 C3         -7.9187    7.6708    0.0361 C.3       1 <0>         0.1483
      4 H1         -8.5854    7.6416   -0.8256 H         1 <0>         0.0757
      5 C4         -8.7450    7.8068    1.3137 C.3       1 <0>        -0.1340
      6 C5         -9.5907    6.5462    1.5082 C.3       1 <0>        -0.1226
      7 C6         -8.6719    5.3307    1.6523 C.3       1 <0>        -0.1367
      8 C7         -7.8455    5.1659    0.3730 C.3       1 <0>         0.1004
      9 N1         -7.1409    6.4259    0.0995 N.am      1 <0>        -0.6004
     10 C8         -5.8058    6.4402   -0.0842 C.2       1 <0>         0.5365
     11 O1         -5.2492    7.4679   -0.4080 O.2       1 <0>        -0.5166
     12 C9         -5.0046    5.1791    0.1128 C.3       1 <0>        -0.1447
     13 S1         -3.2557    5.5196   -0.2057 S.3       1 <0>         0.0798
     14 C10        -2.5742    3.9216    0.0890 C.2       1 <0>         0.1123
     15 N2         -3.2391    2.8437    0.4391 N.2       1 <0>        -0.2733
     16 N3         -2.4345    1.8504    0.5703 N.2       1 <0>        -0.2464
     17 C11        -1.2032    2.2331    0.3115 C.2       1 <0>         0.2936
     18 N4         -1.2552    3.5743    0.0009 N.pl3     1 <0>        -0.2995
     19 N5         -0.2077    4.3867   -0.3287 N.3       1 <0>        -0.5761
     20 C12         0.0020    1.3904    0.3522 C.2       1 <0>         0.0383
     21 C13         0.0253    0.0283    0.3813 C.2       1 <0>        -0.1352
     22 C14         1.3807   -0.3533    0.4089 C.2       1 <0>        -0.2164
     23 C15         2.1111    0.7794    0.3955 C.2       1 <0>        -0.0123
     24 O2          1.2757    1.8308    0.3613 O.3       1 <0>        -0.1549
     25 H2         -7.1106   11.0035   -0.2894 H         1 <0>         0.0573
     26 H3         -8.5211   10.1111   -0.9078 H         1 <0>         0.0522
     27 H4         -8.2822   10.2928    0.8466 H         1 <0>         0.0527
     28 H5         -6.2882    8.8757    0.7646 H         1 <0>         0.0684
     29 H6         -6.3941    8.7767   -1.0095 H         1 <0>         0.0943
     30 H7         -9.3992    8.6751    1.2346 H         1 <0>         0.0805
     31 H8         -8.0764    7.9314    2.1655 H         1 <0>         0.0677
     32 H9        -10.2418    6.4089    0.6450 H         1 <0>         0.0659
     33 H10       -10.1974    6.6514    2.4076 H         1 <0>         0.0688
     34 H11        -9.2741    4.4367    1.8141 H         1 <0>         0.0801
     35 H12        -8.0036    5.4778    2.5007 H         1 <0>         0.0690
     36 H13        -8.5062    4.9283   -0.4608 H         1 <0>         0.0769
     37 H14        -7.1203    4.3629    0.5048 H         1 <0>         0.0894
     38 H15        -5.3572    4.4130   -0.5777 H         1 <0>         0.1283
     39 H16        -5.1257    4.8281    1.1376 H         1 <0>         0.1290
     40 H17        -0.0496    4.3866   -1.3252 H         1 <0>         0.3704
     41 H18        -0.3554    5.3242    0.0139 H         1 <0>         0.3796
     42 H19        -0.8300   -0.6311    0.3831 H         1 <0>         0.1616
     43 H20         1.7627   -1.3631    0.4360 H         1 <0>         0.1586
     44 H21         3.1897    0.8328    0.4100 H         1 <0>         0.2118
@<TRIPOS>BOND
     1    1    2 1
     2    1   25 1
     3    1   26 1
     4    1   27 1
     5    2    3 1
     6    2   28 1
     7    2   29 1
     8    3    4 1
     9    3    9 1
    10    3    5 1
    11    5    6 1
    12    5   30 1
    13    5   31 1
    14    6    7 1
    15    6   32 1
    16    6   33 1
    17    7    8 1
    18    7   34 1
    19    7   35 1
    20    8    9 1
    21    8   36 1
    22    8   37 1
    23    9   10 am
    24   10   11 2
    25   10   12 1
    26   12   13 1
    27   12   38 1
    28   12   39 1
    29   13   14 1
    30   14   18 1
    31   14   15 2
    32   15   16 1
    33   16   17 2
    34   17   18 1
    35   17   20 1
    36   18   19 1
    37   19   40 1
    38   19   41 1
    39   20   24 1
    40   20   21 2
    41   21   22 1
    42   21   42 1
    43   22   23 2
    44   22   43 1
    45   23   24 1
    46   23   44 1
@<TRIPOS>MOLECULE
ZINC07297343
   41    42     0     0     0
SMALL
USER_CHARGES
N-(tert-butylcarbamoyl)-2-(6,8,9-triazabicyclo[4.3.0]nona-2,4,7,9-tetraen-7-ylsulfanyl)propanamide
@<TRIPOS>ATOM
      1 C1          2.3682    1.7682   -1.3185 C.3       1 <0>        -0.1474
      2 C2          1.7321    2.2205   -0.0026 C.3       1 <0>        -0.1074
      3 H1          2.2418    1.7387    0.8319 H         1 <0>         0.1301
      4 C3          1.8580    3.7165    0.1281 C.2       1 <0>         0.5447
      5 O1          0.9146    4.4298   -0.1383 O.2       1 <0>        -0.4460
      6 N1          3.0194    4.2616    0.5412 N.am      1 <0>        -0.6851
      7 C4          3.1320    5.5995    0.6580 C.2       1 <0>         0.6967
      8 O2          2.1862    6.3146    0.3909 O.2       1 <0>        -0.5200
      9 N2          4.2933    6.1445    1.0711 N.am      1 <0>        -0.7293
     10 C5          4.4157    7.5989    1.1981 C.3       1 <0>         0.1840
     11 C6          3.3871    8.1109    2.2085 C.3       1 <0>        -0.1675
     12 C7          5.8241    7.9520    1.6806 C.3       1 <0>        -0.1557
     13 C8          4.1637    8.2526   -0.1620 C.3       1 <0>        -0.1673
     14 S1         -0.0218    1.7577    0.0117 S.3       1 <0>         0.0780
     15 C9          0.0021   -0.0041    0.0020 C.2       1 <0>         0.1091
     16 N3          1.0709   -0.7682   -0.0181 N.2       1 <0>        -0.2491
     17 N4          0.7323   -2.0095   -0.0165 N.2       1 <0>        -0.2771
     18 C10        -0.5838   -2.1115   -0.0042 C.2       1 <0>         0.2026
     19 N5         -1.0852   -0.8270    0.0080 N.pl3     1 <0>        -0.3749
     20 C11        -2.4351   -0.6113    0.0224 C.2       1 <0>         0.0659
     21 C12        -3.2933   -1.6509    0.0249 C.2       1 <0>        -0.1295
     22 C13        -2.8116   -2.9732    0.0127 C.2       1 <0>        -0.0836
     23 C14        -1.4725   -3.2055   -0.0017 C.2       1 <0>        -0.0780
     24 H2          1.8585    2.2499   -2.1529 H         1 <0>         0.0762
     25 H3          3.4221    2.0462   -1.3271 H         1 <0>         0.0763
     26 H4          2.2772    0.6861   -1.4130 H         1 <0>         0.0905
     27 H5          3.7742    3.6909    0.7543 H         1 <0>         0.4122
     28 H6          5.0482    5.5738    1.2843 H         1 <0>         0.3982
     29 H7          3.5667    7.6452    3.1775 H         1 <0>         0.0547
     30 H8          3.4782    9.1930    2.3030 H         1 <0>         0.0666
     31 H9          2.3838    7.8594    1.8647 H         1 <0>         0.0798
     32 H10         6.5568    7.5872    0.9608 H         1 <0>         0.0636
     33 H11         5.9151    9.0340    1.7751 H         1 <0>         0.0780
     34 H12         6.0036    7.4862    2.6496 H         1 <0>         0.0635
     35 H13         3.1604    8.0011   -0.5058 H         1 <0>         0.0798
     36 H14         4.2548    9.3347   -0.0675 H         1 <0>         0.0666
     37 H15         4.8965    7.8878   -0.8818 H         1 <0>         0.0548
     38 H16        -2.8167    0.3990    0.0319 H         1 <0>         0.1723
     39 H17        -4.3577   -1.4679    0.0363 H         1 <0>         0.1610
     40 H18        -3.5045   -3.8016    0.0151 H         1 <0>         0.1519
     41 H19        -1.0937   -4.2169   -0.0115 H         1 <0>         0.1609
@<TRIPOS>BOND
     1    1    2 1
     2    1   24 1
     3    1   25 1
     4    1   26 1
     5    2    3 1
     6    2    4 1
     7    2   14 1
     8    4    5 2
     9    4    6 am
    10    6    7 am
    11    6   27 1
    12    7    8 2
    13    7    9 am
    14    9   10 1
    15    9   28 1
    16   10   11 1
    17   10   12 1
    18   10   13 1
    19   11   29 1
    20   11   30 1
    21   11   31 1
    22   12   32 1
    23   12   33 1
    24   12   34 1
    25   13   35 1
    26   13   36 1
    27   13   37 1
    28   14   15 1
    29   15   19 1
    30   15   16 2
    31   16   17 1
    32   17   18 2
    33   18   23 1
    34   18   19 1
    35   19   20 1
    36   20   21 2
    37   20   38 1
    38   21   22 1
    39   21   39 1
    40   22   23 2
    41   22   40 1
    42   23   41 1
@<TRIPOS>MOLECULE
ZINC18264295
   41    44     0     0     0
SMALL
USER_CHARGES
(4-amino-5,6,7,8-tetrahydrobenzothiopheno[3,2-e]pyrimidin-2-yl)methyl 5,6-dihydro-1,4-dioxine-2-carboxylate
@<TRIPOS>ATOM
      1 C1          5.9256    2.7994    0.2065 C.3       1 <0>        -0.1204
      2 C2          5.6294    3.9332    1.1926 C.3       1 <0>        -0.1155
      3 C3          4.2991    4.5914    0.7997 C.3       1 <0>        -0.0420
      4 C4          3.2874    3.5108    0.5662 C.2       1 <0>        -0.1428
      5 C5          3.5230    2.1939    0.3977 C.2       1 <0>        -0.0846
      6 C6          2.3583    1.3331    0.1840 C.ar      1 <0>        -0.2319
      7 C7          2.3159   -0.0743   -0.0195 C.ar      1 <0>         0.4905
      8 N1          1.1446   -0.6644   -0.1947 N.ar      1 <0>        -0.5689
      9 C8          0.0085    0.0099   -0.1872 C.ar      1 <0>         0.3783
     10 N2         -0.0153    1.3157   -0.0031 N.ar      1 <0>        -0.4955
     11 C9          1.1078    1.9828    0.1788 C.ar      1 <0>         0.1430
     12 S1          1.5268    3.6844    0.4522 S.3       1 <0>         0.1235
     13 C10        -1.2886   -0.7292   -0.3930 C.3       1 <0>         0.1483
     14 O1         -1.5955   -0.7734   -1.7880 O.3       1 <0>        -0.3421
     15 C11        -2.7334   -1.4046   -2.1452 C.2       1 <0>         0.5319
     16 O2         -3.4451   -1.9037   -1.2939 O.2       1 <0>        -0.4839
     17 C12        -3.1109   -1.4888   -3.5548 C.2       1 <0>        -0.0743
     18 C13        -2.3151   -0.9333   -4.4804 C.2       1 <0>         0.0586
     19 O3         -2.6198   -0.9755   -5.7944 O.3       1 <0>        -0.2954
     20 C14        -3.5987   -1.9398   -6.1990 C.3       1 <0>         0.0103
     21 C15        -4.7728   -1.8706   -5.2119 C.3       1 <0>         0.0211
     22 O4         -4.2601   -2.1344   -3.8985 O.3       1 <0>        -0.2866
     23 N3          3.4835   -0.8158   -0.0346 N.pl3     1 <0>        -0.8310
     24 C16         4.9472    1.6462    0.4319 C.3       1 <0>        -0.0726
     25 H1          5.8204    3.1695   -0.8133 H         1 <0>         0.0699
     26 H2          6.9449    2.4444    0.3583 H         1 <0>         0.0745
     27 H3          6.4294    4.6723    1.1510 H         1 <0>         0.0786
     28 H4          5.5544    3.5319    2.2032 H         1 <0>         0.0705
     29 H5          4.4325    5.1727   -0.1127 H         1 <0>         0.0893
     30 H6          3.9600    5.2439    1.6043 H         1 <0>         0.0875
     31 H7         -1.1927   -1.7450   -0.0097 H         1 <0>         0.1044
     32 H8         -2.0885   -0.2141    0.1389 H         1 <0>         0.1047
     33 H9         -1.4072   -0.4400   -4.1662 H         1 <0>         0.1929
     34 H10        -3.9493   -1.7086   -7.2049 H         1 <0>         0.1269
     35 H11        -3.1613   -2.9381   -6.1814 H         1 <0>         0.0868
     36 H12        -5.2226   -0.8782   -5.2435 H         1 <0>         0.0819
     37 H13        -5.5181   -2.6220   -5.4726 H         1 <0>         0.1277
     38 H14         3.4814   -1.7165   -0.3946 H         1 <0>         0.4109
     39 H15         4.3043   -0.4351    0.3149 H         1 <0>         0.4144
     40 H16         5.0715    0.9027   -0.3554 H         1 <0>         0.0792
     41 H17         5.1408    1.1872    1.4014 H         1 <0>         0.0820
@<TRIPOS>BOND
     1    1   24 1
     2    1    2 1
     3    1   25 1
     4    1   26 1
     5    2    3 1
     6    2   27 1
     7    2   28 1
     8    3    4 1
     9    3   29 1
    10    3   30 1
    11    4   12 1
    12    4    5 2
    13    5    6 1
    14    5   24 1
    15    6   11 ar
    16    6    7 ar
    17    7    8 ar
    18    7   23 1
    19    8    9 ar
    20    9   10 ar
    21    9   13 1
    22   10   11 ar
    23   11   12 1
    24   13   14 1
    25   13   31 1
    26   13   32 1
    27   14   15 1
    28   15   16 2
    29   15   17 1
    30   17   22 1
    31   17   18 2
    32   18   19 1
    33   18   33 1
    34   19   20 1
    35   20   21 1
    36   20   34 1
    37   20   35 1
    38   21   22 1
    39   21   36 1
    40   21   37 1
    41   23   38 1
    42   23   39 1
    43   24   40 1
    44   24   41 1
@<TRIPOS>MOLECULE
ZINC40144722
   39    41     0     0     0
SMALL
USER_CHARGES

@<TRIPOS>ATOM
      1 C1         -0.0167    1.3766    0.0096 C.2       1 <0>        -0.0432
      2 C2          1.2149    2.0258    0.0013 C.2       1 <0>        -0.1452
      3 C3          2.3179    1.2321   -0.0154 C.2       1 <0>        -0.1739
      4 S1          1.7518   -0.3425   -0.0149 S.3       1 <0>         0.2065
      5 C4          0.0021   -0.0041    0.0020 C.2       1 <0>        -0.2681
      6 C5         -1.1222   -0.9446    0.0074 C.2       1 <0>         0.6157
      7 O1         -2.2651   -0.5267    0.0202 O.2       1 <0>        -0.5214
      8 N1         -0.8902   -2.2722   -0.0019 N.am      1 <0>        -0.5198
      9 N2         -1.9647   -3.1712    0.0032 N.am      1 <0>        -0.5053
     10 C6         -1.7327   -4.4988   -0.0061 C.2       1 <0>         0.5474
     11 O2         -0.5937   -4.9153   -0.0189 O.2       1 <0>        -0.5244
     12 C7         -2.8885   -5.4658   -0.0006 C.3       1 <0>        -0.1433
     13 H1         -3.7747   -5.1422   -0.5465 H         1 <0>         0.1549
     14 C8         -3.1030   -6.3032    1.2618 C.3       1 <0>        -0.1021
     15 C9         -2.5596   -6.9600   -0.0096 C.3       1 <0>        -0.0590
     16 H2         -1.5072   -7.2436   -0.0195 H         1 <0>         0.1884
     17 N3         -3.4601   -7.8464   -0.7509 N.pl3     1 <0>         0.0128
     18 O3         -3.0358   -8.5088   -1.6690 O.2       1 <0>        -0.1426
     19 O4         -4.6276   -7.9156   -0.4445 O.3       1 <0>        -0.1542
     20 C10         3.7561    1.6577   -0.0350 C.3       1 <0>        -0.0460
     21 C11         3.8956    3.0181    0.6569 C.3       1 <0>        -0.1184
     22 C12         3.7070    4.1161   -0.3853 C.3       1 <0>        -0.1227
     23 C13         2.3190    4.0274   -1.0138 C.3       1 <0>        -0.1187
     24 C14         1.2987    3.5484    0.0134 C.3       1 <0>        -0.0584
     25 H3         -0.9450    1.9282    0.0258 H         1 <0>         0.1490
     26 H4          0.0208   -2.6053   -0.0121 H         1 <0>         0.4334
     27 H5         -2.8757   -2.8381    0.0134 H         1 <0>         0.4390
     28 H6         -2.4081   -6.1547    2.0884 H         1 <0>         0.1382
     29 H7         -4.1303   -6.5309    1.5462 H         1 <0>         0.1462
     30 H8          4.3609    0.9189    0.4908 H         1 <0>         0.0820
     31 H9          4.0972    1.7384   -1.0672 H         1 <0>         0.0904
     32 H10         3.1348    3.1144    1.4315 H         1 <0>         0.0748
     33 H11         4.8871    3.1024    1.1018 H         1 <0>         0.0734
     34 H12         3.8237    5.0889    0.0924 H         1 <0>         0.0650
     35 H13         4.4618    4.0060   -1.1639 H         1 <0>         0.0652
     36 H14         2.0262    5.0109   -1.3811 H         1 <0>         0.0682
     37 H15         2.3456    3.3273   -1.8488 H         1 <0>         0.0632
     38 H16         0.3209    3.9659   -0.2270 H         1 <0>         0.0725
     39 H17         1.5991    3.8858    1.0054 H         1 <0>         0.0802
@<TRIPOS>BOND
     1    1    5 2
     2    1    2 1
     3    1   25 1
     4    2   24 1
     5    2    3 2
     6    3    4 1
     7    3   20 1
     8    4    5 1
     9    5    6 1
    10    6    7 2
    11    6    8 am
    12    8    9 1
    13    8   26 1
    14    9   10 am
    15    9   27 1
    16   10   11 2
    17   10   12 1
    18   12   13 1
    19   12   15 1
    20   12   14 1
    21   14   15 1
    22   14   28 1
    23   14   29 1
    24   15   16 1
    25   15   17 1
    26   17   18 2
    27   17   19 1
    28   20   21 1
    29   20   30 1
    30   20   31 1
    31   21   22 1
    32   21   32 1
    33   21   33 1
    34   22   23 1
    35   22   34 1
    36   22   35 1
    37   23   24 1
    38   23   36 1
    39   23   37 1
    40   24   38 1
    41   24   39 1
@<TRIPOS>MOLECULE
ZINC39983877
   42    45     0     0     0
SMALL
USER_CHARGES

@<TRIPOS>ATOM
      1 C1         -0.0187    1.5258    0.0104 C.3       1 <0>        -0.1480
      2 C2          0.0021   -0.0041    0.0020 C.3       1 <0>        -0.0923
      3 C3          0.7421   -0.5109    1.2415 C.3       1 <0>        -0.1512
      4 C4         -1.4333   -0.5336    0.0129 C.3       1 <0>        -0.0522
      5 C5         -1.4159   -2.0348   -0.1192 C.2       1 <0>        -0.0100
      6 C6         -1.4647   -2.8865    0.9074 C.2       1 <0>        -0.1643
      7 C7         -1.4203   -4.2544    0.2498 C.3       1 <0>        -0.0828
      8 H1         -0.5350   -4.8058    0.5665 H         1 <0>         0.1456
      9 N1         -1.3461   -3.9297   -1.1850 N.2       1 <0>        -0.1271
     10 N2         -1.3546   -2.7011   -1.2934 N.2       1 <0>        -0.1555
     11 C8         -2.6904   -5.0474    0.5640 C.3       1 <0>         0.3991
     12 H2         -3.5596   -4.5538    0.1292 H         1 <0>         0.1296
     13 N3         -2.8592   -5.1849    2.0302 N.3       1 <0>        -0.4806
     14 N4         -2.7266   -6.6198    2.3349 N.3       1 <0>        -0.4496
     15 C9         -1.9225   -7.1256    1.2041 C.3       1 <0>         0.2042
     16 H3         -0.8540   -6.9350    1.3038 H         1 <0>         0.1112
     17 N5         -2.5731   -6.4289    0.0445 N.pl3     1 <0>        -0.5046
     18 N6         -2.8939   -7.2701   -0.9989 N.2       1 <0>        -0.1700
     19 C10        -2.9365   -8.5651   -0.8759 C.2       1 <0>         0.1570
     20 S1         -2.3319   -8.8676    0.8152 S.3       1 <0>        -0.1401
     21 C11        -3.3654   -9.5617   -1.8793 C.ar      1 <0>         0.0394
     22 C12        -3.3573  -10.9303   -1.5834 C.ar      1 <0>        -0.1417
     23 C13        -3.7657  -11.8255   -2.5495 C.ar      1 <0>         0.1075
     24 N7         -4.1597  -11.4075   -3.7377 N.ar      1 <0>        -0.4739
     25 C14        -4.1827  -10.1275   -4.0579 C.ar      1 <0>         0.1066
     26 C15        -3.7967   -9.1634   -3.1506 C.ar      1 <0>        -0.1320
     27 H4          1.0039    1.9031    0.0027 H         1 <0>         0.0587
     28 H5         -0.5459    1.8868   -0.8726 H         1 <0>         0.0589
     29 H6         -0.5289    1.8773    0.9072 H         1 <0>         0.0571
     30 H7          0.5123   -0.3556   -0.8948 H         1 <0>         0.0751
     31 H8          0.7568   -1.6008    1.2356 H         1 <0>         0.0487
     32 H9          1.7647   -0.1336    1.2338 H         1 <0>         0.0582
     33 H10         0.2319   -0.1594    2.1383 H         1 <0>         0.0576
     34 H11        -1.9156   -0.2570    0.9504 H         1 <0>         0.0859
     35 H12        -1.9862   -0.1019   -0.8214 H         1 <0>         0.0889
     36 H13        -1.5221   -2.6562    1.9610 H         1 <0>         0.1778
     37 H14        -2.1665   -4.6444    2.5262 H         1 <0>         0.3343
     38 H15        -2.2468   -6.7605    3.2113 H         1 <0>         0.3539
     39 H16        -3.0358  -11.2796   -0.6133 H         1 <0>         0.1414
     40 H17        -3.7627  -12.8831   -2.3310 H         1 <0>         0.1660
     41 H18        -4.5124   -9.8307   -5.0425 H         1 <0>         0.1660
     42 H19        -3.8225   -8.1174   -3.4180 H         1 <0>         0.1472
@<TRIPOS>BOND
     1    1    2 1
     2    1   27 1
     3    1   28 1
     4    1   29 1
     5    2    3 1
     6    2    4 1
     7    2   30 1
     8    3   31 1
     9    3   32 1
    10    3   33 1
    11    4    5 1
    12    4   34 1
    13    4   35 1
    14    5   10 1
    15    5    6 2
    16    6    7 1
    17    6   36 1
    18    7    8 1
    19    7    9 1
    20    7   11 1
    21    9   10 2
    22   11   12 1
    23   11   17 1
    24   11   13 1
    25   13   14 1
    26   13   37 1
    27   14   15 1
    28   14   38 1
    29   15   16 1
    30   15   20 1
    31   15   17 1
    32   17   18 1
    33   18   19 2
    34   19   20 1
    35   19   21 1
    36   21   26 ar
    37   21   22 ar
    38   22   23 ar
    39   22   39 1
    40   23   24 ar
    41   23   40 1
    42   24   25 ar
    43   25   26 ar
    44   25   41 1
    45   26   42 1
@<TRIPOS>MOLECULE
ZINC00656870
   43    45     0     0     0
SMALL
USER_CHARGES
3-bromo-N-[(2,4-dimethoxyphenyl)methyleneamino]-8-methyl-1,7-diazabicyclo[4.3.0]nona-2,4,6,8-tetraene-9-carboxamide
@<TRIPOS>ATOM
      1 C1          2.9483    3.1961    6.5151 C.3       1 <0>        -0.0829
      2 C2          2.5020    4.5820    6.1266 C.2       1 <0>         0.1450
      3 C3          1.6702    4.9000    5.0649 C.2       1 <0>        -0.1400
      4 N1          1.5219    6.2746    5.0824 N.pl3     1 <0>        -0.3297
      5 C4          0.8231    7.1316    4.2906 C.2       1 <0>         0.0949
      6 C5          0.8460    8.4637    4.5281 C.2       1 <0>        -0.1110
      7 C6          1.5944    8.9748    5.5984 C.2       1 <0>        -0.0749
      8 C7          2.2972    8.1224    6.3962 C.2       1 <0>        -0.0665
      9 C8          2.2603    6.7413    6.1325 C.2       1 <0>         0.2483
     10 N2          2.8396    5.7059    6.7383 N.2       1 <0>        -0.4801
     11 Br1        -0.1328    9.6379    3.4150 Br        1 <0>        -0.0002
     12 C9          1.0826    3.9943    4.1461 C.2       1 <0>         0.6217
     13 O1          1.7306    3.5778    3.2023 O.2       1 <0>        -0.4736
     14 N3         -0.1930    3.5939    4.3167 N.am      1 <0>        -0.5800
     15 N4         -0.8086    2.7858    3.3520 N.2       1 <0>        -0.2095
     16 C10        -2.0375    2.4002    3.5164 C.2       1 <0>         0.1192
     17 C11        -2.6848    1.5504    2.5019 C.ar      1 <0>        -0.1330
     18 C12        -4.0070    1.1334    2.6763 C.ar      1 <0>        -0.0079
     19 C13        -4.6085    0.3384    1.7254 C.ar      1 <0>        -0.2511
     20 C14        -3.9047   -0.0507    0.5918 C.ar      1 <0>         0.1874
     21 C15        -2.5933    0.3624    0.4069 C.ar      1 <0>        -0.2547
     22 C16        -1.9764    1.1564    1.3578 C.ar      1 <0>         0.2054
     23 O2         -0.6910    1.5573    1.1806 O.3       1 <0>        -0.2705
     24 C17        -0.0323    1.1172   -0.0087 C.3       1 <0>         0.0211
     25 O3         -4.5050   -0.8343   -0.3415 O.3       1 <0>        -0.3136
     26 C18        -5.8583   -1.2194   -0.0919 C.3       1 <0>         0.0248
     27 H1          3.8749    2.9536    5.9947 H         1 <0>         0.0894
     28 H2          3.1152    3.1565    7.5915 H         1 <0>         0.0881
     29 H3          2.1779    2.4758    6.2401 H         1 <0>         0.0760
     30 H4          0.2445    6.7453    3.4646 H         1 <0>         0.1716
     31 H5          1.6139   10.0376    5.7889 H         1 <0>         0.1591
     32 H6          2.8770    8.5038    7.2237 H         1 <0>         0.1682
     33 H7         -0.6849    3.8654    5.1075 H         1 <0>         0.3833
     34 H8         -2.5851    2.7024    4.3968 H         1 <0>         0.1199
     35 H9         -4.5569    1.4338    3.5559 H         1 <0>         0.1392
     36 H10        -5.6305    0.0166    1.8611 H         1 <0>         0.1358
     37 H11        -2.0522    0.0611   -0.4779 H         1 <0>         0.1412
     38 H12        -0.0044    0.0277   -0.0268 H         1 <0>         0.0570
     39 H13         0.9855    1.5070   -0.0257 H         1 <0>         0.1042
     40 H14        -0.5754    1.4813   -0.8808 H         1 <0>         0.0562
     41 H15        -5.9100   -1.7821    0.8401 H         1 <0>         0.0597
     42 H16        -6.4811   -0.3282   -0.0133 H         1 <0>         0.0596
     43 H17        -6.2162   -1.8415   -0.9123 H         1 <0>         0.1030
@<TRIPOS>BOND
     1    1    2 1
     2    1   27 1
     3    1   28 1
     4    1   29 1
     5    2   10 1
     6    2    3 2
     7    3    4 1
     8    3   12 1
     9    4    9 1
    10    4    5 1
    11    5    6 2
    12    5   30 1
    13    6    7 1
    14    6   11 1
    15    7    8 2
    16    7   31 1
    17    8    9 1
    18    8   32 1
    19    9   10 2
    20   12   13 2
    21   12   14 am
    22   14   15 1
    23   14   33 1
    24   15   16 2
    25   16   17 1
    26   16   34 1
    27   17   22 ar
    28   17   18 ar
    29   18   19 ar
    30   18   35 1
    31   19   20 ar
    32   19   36 1
    33   20   21 ar
    34   20   25 1
    35   21   22 ar
    36   21   37 1
    37   22   23 1
    38   23   24 1
    39   24   38 1
    40   24   39 1
    41   24   40 1
    42   25   26 1
    43   26   41 1
    44   26   42 1
    45   26   43 1
@<TRIPOS>MOLECULE
ZINC09832143
   46    50     0     0     0
SMALL
USER_CHARGES
4-[1-(1-cyclopentyltetrazol-5-yl)sulfanylethyl]-9-(2-thienyl)-7-thia-3,5-diazabicyclo[4.3.0]nona-4,8,10-trien-2-one
@<TRIPOS>ATOM
      1 C1          2.9797    0.7265    1.4146 C.3       1 <0>        -0.1505
      2 C2          2.4626    0.8841   -0.0167 C.3       1 <0>        -0.0337
      3 H1          3.1966    1.4291   -0.6103 H         1 <0>         0.1574
      4 C3          1.1633    1.6474   -0.0002 C.2       1 <0>         0.4270
      5 N1         -0.0111    0.9658    0.0074 N.am      1 <0>        -0.6319
      6 H2          0.0021   -0.0041    0.0020 H         1 <0>         0.4184
      7 C4         -1.1930    1.6095    0.0165 C.2       1 <0>         0.5533
      8 O1         -2.2387    0.9829    0.0185 O.2       1 <0>        -0.4926
      9 C5         -1.2036    3.0404    0.0290 C.2       1 <0>        -0.2371
     10 C6         -2.3401    3.9548    0.0442 C.2       1 <0>         0.0205
     11 C7         -2.1013    5.2903    0.0487 C.2       1 <0>        -0.1647
     12 S1         -0.3218    5.3914    0.0325 S.3       1 <0>         0.1860
     13 C8          0.0576    3.6583    0.0203 C.2       1 <0>         0.1038
     14 N2          1.1860    2.9532    0.0062 N.2       1 <0>        -0.4667
     15 C9         -3.7241    3.4366    0.0550 C.2       1 <0>        -0.1112
     16 C10        -4.7624    3.7663    0.8847 C.2       1 <0>        -0.1418
     17 C11        -5.9803    3.1465    0.6996 C.2       1 <0>        -0.1620
     18 C12        -6.1096    2.2243   -0.2871 C.2       1 <0>        -0.1867
     19 S2         -4.4753    2.2122   -1.0052 S.3       1 <0>         0.1134
     20 S3          2.1924   -0.7511   -0.7441 S.3       1 <0>         0.0429
     21 C13         3.8498   -1.3482   -0.7786 C.2       1 <0>         0.2114
     22 N3          4.9208   -0.7058   -0.3654 N.2       1 <0>        -0.3247
     23 N4          5.9702   -1.4269   -0.5325 N.2       1 <0>        -0.0284
     24 N5          5.6551   -2.5624   -1.0550 N.2       1 <0>        -0.0637
     25 N6          4.2602   -2.5569   -1.2301 N.pl3     1 <0>        -0.3471
     26 C14         3.4291   -3.6284   -1.7847 C.3       1 <0>         0.1413
     27 C15         3.6115   -4.9192   -0.9599 C.3       1 <0>        -0.1323
     28 C16         3.5647   -6.0531   -2.0152 C.3       1 <0>        -0.1217
     29 C17         4.3194   -5.4334   -3.2175 C.3       1 <0>        -0.1232
     30 C18         3.8786   -3.9550   -3.2196 C.3       1 <0>        -0.1323
     31 H3          3.9194    0.1744    1.4027 H         1 <0>         0.0978
     32 H4          3.1423    1.7112    1.8527 H         1 <0>         0.0914
     33 H5          2.2456    0.1815    2.0082 H         1 <0>         0.0719
     34 H6         -2.8177    6.0984    0.0598 H         1 <0>         0.2046
     35 H7         -4.6311    4.4998    1.6664 H         1 <0>         0.1323
     36 H8         -6.8193    3.3884    1.3352 H         1 <0>         0.1331
     37 H9         -6.9780    1.6460   -0.5662 H         1 <0>         0.1844
     38 H10         2.3814   -3.3278   -1.7809 H         1 <0>         0.1172
     39 H11         4.5745   -4.9129   -0.4494 H         1 <0>         0.0862
     40 H12         2.7989   -5.0313   -0.2421 H         1 <0>         0.0830
     41 H13         2.5348   -6.2870   -2.2846 H         1 <0>         0.0761
     42 H14         4.0812   -6.9413   -1.6512 H         1 <0>         0.0799
     43 H15         4.0232   -5.9211   -4.1462 H         1 <0>         0.0770
     44 H16         5.3969   -5.5100   -3.0721 H         1 <0>         0.0750
     45 H17         3.0488   -3.8138   -3.9121 H         1 <0>         0.0870
     46 H18         4.7151   -3.3164   -3.5033 H         1 <0>         0.0798
@<TRIPOS>BOND
     1    1    2 1
     2    1   31 1
     3    1   32 1
     4    1   33 1
     5    2    3 1
     6    2    4 1
     7    2   20 1
     8    4   14 2
     9    4    5 1
    10    5    6 1
    11    5    7 am
    12    7    8 2
    13    7    9 1
    14    9   13 2
    15    9   10 1
    16   10   11 2
    17   10   15 1
    18   11   12 1
    19   11   34 1
    20   12   13 1
    21   13   14 1
    22   15   19 1
    23   15   16 2
    24   16   17 1
    25   16   35 1
    26   17   18 2
    27   17   36 1
    28   18   19 1
    29   18   37 1
    30   20   21 1
    31   21   25 1
    32   21   22 2
    33   22   23 1
    34   23   24 2
    35   24   25 1
    36   25   26 1
    37   26   30 1
    38   26   27 1
    39   26   38 1
    40   27   28 1
    41   27   39 1
    42   27   40 1
    43   28   29 1
    44   28   41 1
    45   28   42 1
    46   29   30 1
    47   29   43 1
    48   29   44 1
    49   30   45 1
    50   30   46 1
@<TRIPOS>MOLECULE
ZINC20785008
   52    56     0     0     0
SMALL
USER_CHARGES
(3R)-N-[(1,3-diphenylpyrazol-4-yl)methyleneamino]-2,3-dihydro-1,4-benzodioxine-3-carboxamide
@<TRIPOS>ATOM
      1 C1          1.7385   10.6891   -1.8322 C.ar      1 <0>        -0.1016
      2 C2          0.5581   10.0248   -2.1134 C.ar      1 <0>        -0.1015
      3 C3         -0.6518   10.5752   -1.7425 C.ar      1 <0>        -0.0436
      4 C4         -0.6829   11.8031   -1.0831 C.ar      1 <0>        -0.0276
      5 C5          0.5095   12.4707   -0.8075 C.ar      1 <0>        -0.0904
      6 C6          1.7138   11.9076   -1.1778 C.ar      1 <0>        -0.1284
      7 C7         -1.9794   12.3996   -0.6819 C.2       1 <0>         0.1682
      8 C8         -3.1014   11.7005   -0.0497 C.2       1 <0>        -0.1902
      9 C9         -4.0867   12.6305    0.1372 C.2       1 <0>         0.0971
     10 N1         -3.6346   13.8154   -0.3224 N.pl3     1 <0>        -0.3151
     11 N2         -2.3398   13.6566   -0.8258 N.2       1 <0>        -0.2729
     12 C10        -4.3533   15.0176   -0.3039 C.ar      1 <0>         0.1541
     13 C11        -5.6396   15.0513    0.2184 C.ar      1 <0>        -0.1406
     14 C12        -6.3436   16.2393    0.2401 C.ar      1 <0>        -0.0921
     15 C13        -5.7729   17.3923   -0.2671 C.ar      1 <0>        -0.1261
     16 C14        -4.4944   17.3608   -0.7931 C.ar      1 <0>        -0.0941
     17 C15        -3.7832   16.1771   -0.8129 C.ar      1 <0>        -0.1164
     18 C16        -3.1593   10.2722    0.3090 C.2       1 <0>         0.1472
     19 N3         -2.1071    9.5250    0.1700 N.2       1 <0>        -0.2181
     20 N4         -2.1622    8.1672    0.5110 N.am      1 <0>        -0.5925
     21 C17        -1.0696    7.3913    0.3667 C.2       1 <0>         0.5385
     22 O1         -0.0385    7.8687   -0.0586 O.2       1 <0>        -0.4608
     23 C18        -1.1288    5.9309    0.7334 C.3       1 <0>         0.0410
     24 H1         -1.4056    5.8278    1.7930 H         1 <0>         0.1153
     25 C19        -2.1033    5.2016   -0.2014 C.3       1 <0>         0.0356
     26 O2         -2.1248    3.8177    0.1652 O.3       1 <0>        -0.2984
     27 C20        -0.9190    3.2207    0.3701 C.ar      1 <0>         0.0431
     28 C21        -0.8348    1.8362    0.3632 C.ar      1 <0>        -0.1101
     29 C22         0.3809    1.2154    0.5786 C.ar      1 <0>        -0.1144
     30 C23         1.5182    1.9723    0.7908 C.ar      1 <0>        -0.1112
     31 C24         1.4424    3.3522    0.7928 C.ar      1 <0>        -0.1094
     32 C25         0.2246    3.9816    0.5814 C.ar      1 <0>         0.0531
     33 O3          0.1668    5.3414    0.5789 O.3       1 <0>        -0.2815
     34 H2          2.6830   10.2545   -2.1244 H         1 <0>         0.1198
     35 H3          0.5835    9.0738   -2.6246 H         1 <0>         0.1185
     36 H4         -1.5727   10.0555   -1.9622 H         1 <0>         0.1156
     37 H5          0.4912   13.4243   -0.3009 H         1 <0>         0.1199
     38 H6          2.6385   12.4213   -0.9602 H         1 <0>         0.1222
     39 H7         -5.0558   12.4486    0.5779 H         1 <0>         0.1894
     40 H8         -6.0874   14.1503    0.6109 H         1 <0>         0.1311
     41 H9         -7.3426   16.2670    0.6495 H         1 <0>         0.1346
     42 H10        -6.3270   18.3192   -0.2528 H         1 <0>         0.1305
     43 H11        -4.0514   18.2629   -1.1885 H         1 <0>         0.1339
     44 H12        -2.7848   16.1531   -1.2241 H         1 <0>         0.1392
     45 H13        -4.0942    9.8394    0.6945 H         1 <0>         0.1284
     46 H14        -3.0971    7.7344    0.8965 H         1 <0>         0.4005
     47 H15        -3.1081    5.6363   -0.0949 H         1 <0>         0.1276
     48 H16        -1.7647    5.3115   -1.2422 H         1 <0>         0.0888
     49 H17        -1.7211    1.2428    0.1939 H         1 <0>         0.1365
     50 H18         0.4435    0.1373    0.5766 H         1 <0>         0.1347
     51 H19         2.4675    1.4843    0.9557 H         1 <0>         0.1352
     52 H20         2.3323    3.9411    0.9595 H         1 <0>         0.1376
@<TRIPOS>BOND
     1    1    6 ar
     2    1    2 ar
     3    1   34 1
     4    2    3 ar
     5    2   35 1
     6    3    4 ar
     7    3   36 1
     8    4    5 ar
     9    4    7 1
    10    5    6 ar
    11    5   37 1
    12    6   38 1
    13    7   11 2
    14    7    8 1
    15    8    9 2
    16    8   18 1
    17    9   10 1
    18    9   39 1
    19   10   11 1
    20   10   12 1
    21   12   17 ar
    22   12   13 ar
    23   13   14 ar
    24   13   40 1
    25   14   15 ar
    26   14   41 1
    27   15   16 ar
    28   15   42 1
    29   16   17 ar
    30   16   43 1
    31   17   44 1
    32   18   19 2
    33   18   45 1
    34   19   20 1
    35   20   21 am
    36   20   46 1
    37   21   22 2
    38   21   23 1
    39   23   24 1
    40   23   33 1
    41   23   25 1
    42   25   26 1
    43   25   47 1
    44   25   48 1
    45   26   27 1
    46   27   32 ar
    47   27   28 ar
    48   28   29 ar
    49   28   49 1
    50   29   30 ar
    51   29   50 1
    52   30   31 ar
    53   30   51 1
    54   31   32 ar
    55   31   52 1
    56   32   33 1
@<TRIPOS>MOLECULE
ZINC32905589
   40    43     0     0     0
SMALL
USER_CHARGES
N-[5-[(2,3-dichlorophenyl)methyl]thiazol-2-yl]-6-(1,2,4-triazol-1-yl)pyridine-3-carboxamide
@<TRIPOS>ATOM
      1 C1         -0.0592    4.4974    0.0269 C.ar      1 <0>        -0.0987
      2 C2         -1.2468    3.7894    0.0339 C.ar      1 <0>        -0.0941
      3 C3         -1.2286    2.4075    0.0210 C.ar      1 <0>        -0.0636
      4 C4         -0.0215    1.7317    0.0116 C.ar      1 <0>        -0.0278
      5 C5          1.1677    2.4406    0.0040 C.ar      1 <0>        -0.0295
      6 C6          1.1476    3.8239    0.0117 C.ar      1 <0>        -0.0998
      7 Cl1         2.6833    1.5942   -0.0145 Cl        1 <0>        -0.0457
      8 Cl2         0.0021   -0.0041    0.0020 Cl        1 <0>        -0.0414
      9 C7         -2.5236    1.6368    0.0229 C.3       1 <0>         0.0091
     10 C8         -2.8853    1.2658    1.4380 C.2       1 <0>        -0.1977
     11 C9         -3.6241    1.9458    2.3485 C.2       1 <0>         0.0674
     12 N1         -3.8044    1.4085    3.5392 N.2       1 <0>        -0.5131
     13 C10        -3.2819    0.2370    3.8464 C.2       1 <0>         0.3016
     14 S1         -2.4650   -0.1957    2.3763 S.3       1 <0>         0.0782
     15 N2         -3.3678   -0.4713    5.0381 N.am      1 <0>        -0.6301
     16 C11        -4.0625    0.0365    6.0753 C.2       1 <0>         0.5664
     17 O1         -4.6140    1.1147    5.9679 O.2       1 <0>        -0.4606
     18 C12        -4.1538   -0.7164    7.3419 C.ar      1 <0>        -0.1942
     19 C13        -4.8690   -0.1952    8.4298 C.ar      1 <0>         0.0140
     20 C14        -4.9295   -0.9386    9.5912 C.ar      1 <0>        -0.1600
     21 C15        -4.2761   -2.1658    9.6480 C.ar      1 <0>         0.3939
     22 N3         -3.6044   -2.6286    8.6046 N.ar      1 <0>        -0.5023
     23 C16        -3.5247   -1.9551    7.4766 C.ar      1 <0>         0.1745
     24 N4         -4.3291   -2.9195   10.8211 N.pl3     1 <0>        -0.3425
     25 C17        -3.7538   -4.1201   11.0380 C.2       1 <0>         0.2973
     26 N5         -4.0379   -4.4898   12.2599 N.2       1 <0>        -0.5343
     27 C18        -4.7872   -3.5594   12.8518 C.2       1 <0>         0.2236
     28 N6         -4.9870   -2.5766   12.0137 N.2       1 <0>        -0.3077
     29 H1         -0.0746    5.5772    0.0329 H         1 <0>         0.1416
     30 H2         -2.1893    4.3166    0.0458 H         1 <0>         0.1414
     31 H3          2.0749    4.3775    0.0062 H         1 <0>         0.1437
     32 H4         -3.3214    2.2594   -0.4083 H         1 <0>         0.1109
     33 H5         -2.4071    0.7225   -0.5775 H         1 <0>         0.0994
     34 H6         -4.0549    2.9056    2.1045 H         1 <0>         0.1716
     35 H7         -2.8688   -1.4468    5.1353 H         1 <0>         0.4506
     36 H8         -5.3636    0.7623    8.3592 H         1 <0>         0.1632
     37 H9         -5.4746   -0.5701   10.4477 H         1 <0>         0.1612
     38 H10        -2.9675   -2.3650    6.6472 H         1 <0>         0.1720
     39 H11        -3.1620   -4.6780   10.3274 H         1 <0>         0.2310
     40 H12        -5.1640   -3.6076   13.8627 H         1 <0>         0.2305
@<TRIPOS>BOND
     1    1    6 ar
     2    1    2 ar
     3    1   29 1
     4    2    3 ar
     5    2   30 1
     6    3    4 ar
     7    3    9 1
     8    4    5 ar
     9    4    8 1
    10    5    6 ar
    11    5    7 1
    12    6   31 1
    13    9   10 1
    14    9   32 1
    15    9   33 1
    16   10   14 1
    17   10   11 2
    18   11   12 1
    19   11   34 1
    20   12   13 2
    21   13   14 1
    22   13   15 1
    23   15   16 am
    24   15   35 1
    25   16   17 2
    26   16   18 1
    27   18   23 ar
    28   18   19 ar
    29   19   20 ar
    30   19   36 1
    31   20   21 ar
    32   20   37 1
    33   21   22 ar
    34   21   24 1
    35   22   23 ar
    36   23   38 1
    37   24   28 1
    38   24   25 1
    39   25   26 2
    40   25   39 1
    41   26   27 1
    42   27   28 2
    43   27   40 1
@<TRIPOS>MOLECULE
ZINC60359984
   57    61     0     0     0
SMALL
USER_CHARGES

@<TRIPOS>ATOM
      1 C1         -1.9839    0.6225    0.5427 C.3       1 <0>        -0.1140
      2 C2         -0.9396   -0.4258    0.2571 C.ar      1 <0>        -0.0589
      3 C3         -1.0068   -1.1700   -0.9047 C.ar      1 <0>        -0.1079
      4 C4         -0.0493   -2.1323   -1.1672 C.ar      1 <0>        -0.1013
      5 C5          0.9785   -2.3526   -0.2684 C.ar      1 <0>        -0.1105
      6 C6          1.0514   -1.6115    0.8945 C.ar      1 <0>        -0.1036
      7 C7          0.0942   -0.6405    1.1586 C.ar      1 <0>         0.1146
      8 N1          0.1684    0.1168    2.3351 N.pl3     1 <0>        -0.2106
      9 C8          0.3801   -0.3933    3.5786 C.2       1 <0>        -0.0143
     10 C9          0.3839    0.6489    4.4373 C.2       1 <0>        -0.1524
     11 C10         0.1654    1.8007    3.6463 C.2       1 <0>         0.0039
     12 N2          0.0519    1.3947    2.3966 N.2       1 <0>        -0.2405
     13 C11         0.0847    3.1943    4.1278 C.2       1 <0>         0.6133
     14 O1          0.2114    3.4365    5.3124 O.2       1 <0>        -0.5197
     15 N3         -0.1293    4.1979    3.2539 N.am      1 <0>        -0.7090
     16 C12        -0.2094    5.5805    3.7316 C.3       1 <0>         0.2506
     17 H1          0.4803    5.7177    4.5644 H         1 <0>         0.1046
     18 C13         0.1603    6.5205    2.6132 C.2       1 <0>         0.1315
     19 N4         -0.2616    6.4553    1.3768 N.2       1 <0>        -0.2337
     20 N5          0.2465    7.4109    0.6808 N.2       1 <0>        -0.2835
     21 C14         1.0319    8.1475    1.4497 C.2       1 <0>         0.1965
     22 N6          0.9892    7.5955    2.7066 N.pl3     1 <0>        -0.3808
     23 C15         1.7037    8.1475    3.7287 C.2       1 <0>         0.0615
     24 C16         2.4604    9.2454    3.5209 C.2       1 <0>        -0.1306
     25 C17         2.5221    9.8350    2.2466 C.2       1 <0>        -0.0852
     26 C18         1.8207    9.2903    1.2162 C.2       1 <0>        -0.0782
     27 C19        -1.6363    5.8775    4.1968 C.3       1 <0>        -0.1004
     28 C20        -2.0116    4.9232    5.3323 C.3       1 <0>        -0.1389
     29 C21        -1.7199    7.3215    4.6957 C.3       1 <0>        -0.1456
     30 C22         0.6137    0.1694    5.8501 C.3       1 <0>        -0.0456
     31 C23         0.3266   -1.3483    5.8082 C.3       1 <0>        -0.1151
     32 C24         0.6086   -1.6869    4.3276 C.3       1 <0>        -0.0386
     33 H2         -1.6232    1.5953    0.2085 H         1 <0>         0.0844
     34 H3         -2.9030    0.3739    0.0121 H         1 <0>         0.0712
     35 H4         -2.1808    0.6566    1.6143 H         1 <0>         0.0643
     36 H5         -1.8082   -1.0003   -1.6084 H         1 <0>         0.1360
     37 H6         -0.1044   -2.7134   -2.0759 H         1 <0>         0.1334
     38 H7          1.7247   -3.1052   -0.4762 H         1 <0>         0.1358
     39 H8          1.8543   -1.7839    1.5960 H         1 <0>         0.1310
     40 H9         -0.2304    4.0046    2.3087 H         1 <0>         0.4161
     41 H10         1.6633    7.7028    4.7121 H         1 <0>         0.1702
     42 H11         3.0215    9.6735    4.3384 H         1 <0>         0.1591
     43 H12         3.1289   10.7136    2.0846 H         1 <0>         0.1508
     44 H13         1.8592    9.7361    0.2332 H         1 <0>         0.1596
     45 H14        -2.3260    5.7404    3.3640 H         1 <0>         0.0840
     46 H15        -1.3219    5.0604    6.1651 H         1 <0>         0.0667
     47 H16        -3.0282    5.1348    5.6638 H         1 <0>         0.0553
     48 H17        -1.9520    3.8945    4.9769 H         1 <0>         0.0566
     49 H18        -1.4525    8.0014    3.8867 H         1 <0>         0.0471
     50 H19        -2.7365    7.5332    5.0271 H         1 <0>         0.0675
     51 H20        -1.0302    7.4587    5.5285 H         1 <0>         0.0580
     52 H21         1.6460    0.3516    6.1488 H         1 <0>         0.0816
     53 H22        -0.0732    0.6662    6.5352 H         1 <0>         0.0821
     54 H23         1.0038   -1.8910    6.4676 H         1 <0>         0.0868
     55 H24        -0.7126   -1.5552    6.0638 H         1 <0>         0.0783
     56 H25        -0.0811   -2.4546    3.9766 H         1 <0>         0.0792
     57 H26         1.6397   -2.0184    4.2048 H         1 <0>         0.0871
@<TRIPOS>BOND
     1    1    2 1
     2    1   33 1
     3    1   34 1
     4    1   35 1
     5    2    7 ar
     6    2    3 ar
     7    3    4 ar
     8    3   36 1
     9    4    5 ar
    10    4   37 1
    11    5    6 ar
    12    5   38 1
    13    6    7 ar
    14    6   39 1
    15    7    8 1
    16    8   12 1
    17    8    9 1
    18    9   32 1
    19    9   10 2
    20   10   11 1
    21   10   30 1
    22   11   12 2
    23   11   13 1
    24   13   14 2
    25   13   15 am
    26   15   16 1
    27   15   40 1
    28   16   17 1
    29   16   18 1
    30   16   27 1
    31   18   22 1
    32   18   19 2
    33   19   20 1
    34   20   21 2
    35   21   26 1
    36   21   22 1
    37   22   23 1
    38   23   24 2
    39   23   41 1
    40   24   25 1
    41   24   42 1
    42   25   26 2
    43   25   43 1
    44   26   44 1
    45   27   28 1
    46   27   29 1
    47   27   45 1
    48   28   46 1
    49   28   47 1
    50   28   48 1
    51   29   49 1
    52   29   50 1
    53   29   51 1
    54   30   31 1
    55   30   52 1
    56   30   53 1
    57   31   32 1
    58   31   54 1
    59   31   55 1
    60   32   56 1
    61   32   57 1
@<TRIPOS>MOLECULE
ZINC04410155
   80    79     0     0     0
SMALL
USER_CHARGES
N,N,N',N',2,2,4,11,13,13-decamethyltetradecane-6,9-diamine
@<TRIPOS>ATOM
      1 C1         -6.2860    6.5476   -1.1536 C.3       1 <0>        -0.1617
      2 C2         -5.0050    5.8540   -1.6214 C.3       1 <0>        -0.0992
      3 H1         -5.2020    5.3128   -2.5468 H         1 <0>         0.0660
      4 C3         -4.5352    4.8718   -0.5464 C.3       1 <0>        -0.1725
      5 C4         -5.5676    3.7533   -0.3912 C.3       1 <0>         0.0238
      6 H2         -6.5458    4.1879   -0.1852 H         1 <0>         0.1418
      7 C5         -5.1606    2.8409    0.7675 C.3       1 <0>        -0.1414
      8 C6         -5.2244    3.6242    2.0802 C.3       1 <0>        -0.1418
      9 C7         -4.7362    2.7375    3.2275 C.3       1 <0>         0.0242
     10 H3         -5.3288    1.8231    3.2574 H         1 <0>         0.1428
     11 C8         -3.2639    2.3842    3.0081 C.3       1 <0>        -0.1473
     12 C9         -2.8099    1.3980    4.0862 C.3       1 <0>        -0.1057
     13 H4         -3.0141    1.8174    5.0714 H         1 <0>         0.0698
     14 C10        -3.5707    0.0804    3.9251 C.3       1 <0>        -0.1726
     15 C11        -1.3085    1.1409    3.9426 C.3       1 <0>        -0.1040
     16 C12        -0.7501    0.6250    5.2704 C.3       1 <0>        -0.0689
     17 C13        -1.4599   -0.6757    5.6512 C.3       1 <0>        -0.1518
     18 C14         0.7504    0.3637    5.1255 C.3       1 <0>        -0.1486
     19 C15        -0.9824    1.6714    6.3623 C.3       1 <0>        -0.1465
     20 C16        -4.2723    4.7917    4.4224 C.3       1 <0>        -0.0557
     21 C17        -6.2948    3.5469    4.8944 C.3       1 <0>        -0.0481
     22 C18        -4.4034    2.1867   -1.8240 C.3       1 <0>        -0.0655
     23 C19        -6.8167    2.1026   -1.6471 C.3       1 <0>        -0.0484
     24 C20        -3.9173    6.9020   -1.8651 C.3       1 <0>        -0.1073
     25 C21        -2.8905    6.3505   -2.8562 C.3       1 <0>        -0.0700
     26 C22        -3.5413    6.1976   -4.2325 C.3       1 <0>        -0.1521
     27 C23        -1.7079    7.3161   -2.9557 C.3       1 <0>        -0.1494
     28 C24        -2.3957    4.9862   -2.3717 C.3       1 <0>        -0.1553
     29 H5         -6.7056    7.1282   -1.9751 H         1 <0>         0.0730
     30 H6         -7.0087    5.7976   -0.8323 H         1 <0>         0.0500
     31 H7         -6.0561    7.2113   -0.3200 H         1 <0>         0.0684
     32 H8         -3.5767    4.4434   -0.8396 H         1 <0>         0.1145
     33 H9         -4.4234    5.3973    0.4020 H         1 <0>         0.1084
     34 H10        -5.8420    1.9916    0.8178 H         1 <0>         0.0976
     35 H11        -4.1439    2.4820    0.6076 H         1 <0>         0.1023
     36 H12        -4.5891    4.5070    2.0077 H         1 <0>         0.1026
     37 H13        -6.2528    3.9313    2.2705 H         1 <0>         0.0980
     38 H14        -3.1420    1.9293    2.0251 H         1 <0>         0.1088
     39 H15        -2.6602    3.2899    3.0668 H         1 <0>         0.0927
     40 H16        -3.1006   -0.5175    3.1443 H         1 <0>         0.0703
     41 H17        -3.5489   -0.4691    4.8662 H         1 <0>         0.0836
     42 H18        -4.6046    0.2891    3.6501 H         1 <0>         0.0470
     43 H19        -1.1402    0.3968    3.1641 H         1 <0>         0.0733
     44 H20        -0.8051    2.0693    3.6729 H         1 <0>         0.0673
     45 H21        -1.5445   -1.3143    4.7720 H         1 <0>         0.0591
     46 H22        -0.8854   -1.1913    6.4208 H         1 <0>         0.0609
     47 H23        -2.4555   -0.4483    6.0322 H         1 <0>         0.0575
     48 H24         1.2561    1.2904    4.8542 H         1 <0>         0.0566
     49 H25         1.1482   -0.0038    6.0714 H         1 <0>         0.0627
     50 H26         0.9159   -0.3817    4.3476 H         1 <0>         0.0584
     51 H27        -2.0514    1.8576    6.4655 H         1 <0>         0.0455
     52 H28        -0.5846    1.3039    7.3082 H         1 <0>         0.0648
     53 H29        -0.4767    2.5981    6.0909 H         1 <0>         0.0568
     54 H30        -4.7161    5.3471    3.5962 H         1 <0>         0.1244
     55 H31        -4.4485    5.3263    5.3559 H         1 <0>         0.1291
     56 H32        -3.1995    4.6914    4.2581 H         1 <0>         0.1241
     57 H33        -6.7278    2.5470    4.9236 H         1 <0>         0.1232
     58 H34        -6.3679    4.0035    5.8814 H         1 <0>         0.1286
     59 H35        -6.8365    4.1564    4.1711 H         1 <0>         0.1226
     60 H36        -4.3261    1.4343   -1.0391 H         1 <0>         0.1260
     61 H37        -4.4339    1.6954   -2.7965 H         1 <0>         0.1299
     62 H38        -3.5390    2.8492   -1.7785 H         1 <0>         0.1279
     63 H39        -7.7167    2.7175   -1.6586 H         1 <0>         0.1239
     64 H40        -6.7953    1.4732   -2.5368 H         1 <0>         0.1290
     65 H41        -6.8178    1.4735   -0.7570 H         1 <0>         0.1224
     66 H42        -4.3687    7.8057   -2.2746 H         1 <0>         0.0792
     67 H43        -3.4225    7.1380   -0.9229 H         1 <0>         0.0707
     68 H44        -4.4175    6.8430   -4.2938 H         1 <0>         0.0613
     69 H45        -2.8269    6.4805   -5.0056 H         1 <0>         0.0668
     70 H46        -3.8430    5.1605   -4.3786 H         1 <0>         0.0480
     71 H47        -1.2443    7.4250   -1.9752 H         1 <0>         0.0563
     72 H48        -0.9764    6.9231   -3.6618 H         1 <0>         0.0624
     73 H49        -2.0604    8.2880   -3.3009 H         1 <0>         0.0626
     74 H50        -3.2382    4.2983   -2.3009 H         1 <0>         0.0454
     75 H51        -1.6642    4.5933   -3.0779 H         1 <0>         0.0672
     76 H52        -1.9321    5.0951   -1.3913 H         1 <0>         0.0619
     77 N1         -4.8688    3.4428    4.5197 N.4       1 <0>        -0.3968
     78 H53        -4.3719    2.9098    5.2431 H         1 <0>         0.4333
     79 N2         -5.6335    2.9884   -1.6542 N.4       1 <0>        -0.3970
     80 H54        -5.7139    3.6460   -2.4386 H         1 <0>         0.4330
@<TRIPOS>BOND
     1    1    2 1
     2    1   29 1
     3    1   30 1
     4    1   31 1
     5    2    3 1
     6    2    4 1
     7    2   24 1
     8    4    5 1
     9    4   32 1
    10    4   33 1
    11    5    6 1
    12    5    7 1
    13    5   79 1
    14    7    8 1
    15    7   34 1
    16    7   35 1
    17    8    9 1
    18    8   36 1
    19    8   37 1
    20    9   10 1
    21    9   11 1
    22    9   77 1
    23   11   12 1
    24   11   38 1
    25   11   39 1
    26   12   13 1
    27   12   14 1
    28   12   15 1
    29   14   40 1
    30   14   41 1
    31   14   42 1
    32   15   16 1
    33   15   43 1
    34   15   44 1
    35   16   17 1
    36   16   18 1
    37   16   19 1
    38   17   45 1
    39   17   46 1
    40   17   47 1
    41   18   48 1
    42   18   49 1
    43   18   50 1
    44   19   51 1
    45   19   52 1
    46   19   53 1
    47   20   54 1
    48   20   55 1
    49   20   56 1
    50   20   77 1
    51   21   57 1
    52   21   58 1
    53   21   59 1
    54   21   77 1
    55   22   60 1
    56   22   61 1
    57   22   62 1
    58   22   79 1
    59   23   63 1
    60   23   64 1
    61   23   65 1
    62   23   79 1
    63   24   25 1
    64   24   66 1
    65   24   67 1
    66   25   26 1
    67   25   27 1
    68   25   28 1
    69   26   68 1
    70   26   69 1
    71   26   70 1
    72   27   71 1
    73   27   72 1
    74   27   73 1
    75   28   74 1
    76   28   75 1
    77   28   76 1
    78   77   78 1
    79   79   80 1
@<TRIPOS>MOLECULE
ZINC12051539
   69    72     0     0     0
SMALL
USER_CHARGES
(2R)-1-(benzyl-methyl-amino)-3-[2-methoxy-5-[[(1-phenylcyclopropyl)amino]methyl]phenoxy]propan-2-ol
@<TRIPOS>ATOM
      1 C1         -0.0234   -0.2228   -5.4025 C.3       1 <0>        -0.0466
      2 C2          0.3212    2.0315   -4.5886 C.3       1 <0>         0.0472
      3 C3         -0.3225    2.6600   -5.7976 C.ar      1 <0>        -0.1693
      4 C4          0.1915    2.4191   -7.0581 C.ar      1 <0>        -0.0953
      5 C5         -0.4021    2.9915   -8.1675 C.ar      1 <0>        -0.1137
      6 C6         -1.5031    3.8135   -8.0155 C.ar      1 <0>        -0.0794
      7 C7         -2.0136    4.0590   -6.7546 C.ar      1 <0>        -0.1122
      8 C8         -1.4234    3.4821   -5.6456 C.ar      1 <0>        -0.0917
      9 C9          0.1248    0.1956   -3.0222 C.3       1 <0>        -0.0390
     10 C10        -0.5901    0.9484   -1.8983 C.3       1 <0>         0.0833
     11 H1         -0.3839    2.0150   -1.9870 H         1 <0>         0.1348
     12 C11        -0.0868    0.4424   -0.5450 C.3       1 <0>         0.0280
     13 O1         -0.6669    1.2238    0.5014 O.3       1 <0>        -0.2824
     14 C12        -0.3209    0.9021    1.7766 C.ar      1 <0>         0.0979
     15 C13         0.5576   -0.1426    2.0152 C.ar      1 <0>        -0.1509
     16 C14         0.9083   -0.4684    3.3121 C.ar      1 <0>        -0.1685
     17 C15         0.3844    0.2462    4.3733 C.ar      1 <0>        -0.0711
     18 C16        -0.4926    1.2895    4.1423 C.ar      1 <0>        -0.1730
     19 C17        -0.8438    1.6249    2.8445 C.ar      1 <0>         0.1499
     20 O2         -1.7020    2.6546    2.6153 O.3       1 <0>        -0.2962
     21 C18        -2.1991    3.3519    3.7593 C.3       1 <0>         0.0180
     22 C19         1.8643   -1.6045    3.5696 C.3       1 <0>         0.0449
     23 C20         4.2082   -2.1862    3.7444 C.3       1 <0>         0.0011
     24 C21         3.9324   -3.4874    2.9883 C.3       1 <0>        -0.1436
     25 C22         3.7489   -3.4305    4.5069 C.3       1 <0>        -0.1424
     26 C23         5.6464   -1.7646    3.9023 C.ar      1 <0>        -0.0847
     27 C24         6.6374   -2.7205    4.0245 C.ar      1 <0>        -0.0990
     28 C25         7.9572   -2.3338    4.1646 C.ar      1 <0>        -0.0971
     29 C26         8.2848   -0.9912    4.1926 C.ar      1 <0>        -0.0972
     30 C27         7.2931   -0.0352    4.0761 C.ar      1 <0>        -0.0989
     31 C28         5.9739   -0.4219    3.9308 C.ar      1 <0>        -0.1333
     32 O3         -1.9983    0.7257   -1.9964 O.3       1 <0>        -0.5382
     33 H2         -0.4662   -1.1889   -5.1603 H         1 <0>         0.1229
     34 H3         -0.4493    0.1487   -6.3345 H         1 <0>         0.1270
     35 H4          1.0549   -0.3353   -5.5152 H         1 <0>         0.1249
     36 H5          0.1877    2.6836   -3.7256 H         1 <0>         0.1320
     37 H6          1.3856    1.8901   -4.7760 H         1 <0>         0.1380
     38 H7          1.0544    1.7805   -7.1764 H         1 <0>         0.1303
     39 H8         -0.0035    2.7995   -9.1527 H         1 <0>         0.1376
     40 H9         -1.9646    4.2637   -8.8820 H         1 <0>         0.1380
     41 H10        -2.8737    4.7012   -6.6358 H         1 <0>         0.1379
     42 H11        -1.8222    3.6738   -4.6605 H         1 <0>         0.1315
     43 H12         1.2022    0.3223   -2.9164 H         1 <0>         0.1441
     44 H13        -0.1238   -0.8641   -2.9651 H         1 <0>         0.1382
     45 H14        -0.3715   -0.6022   -0.4189 H         1 <0>         0.0784
     46 H15         0.9989    0.5305   -0.5051 H         1 <0>         0.0801
     47 H16         0.9686   -0.7021    1.1879 H         1 <0>         0.1389
     48 H17         0.6605   -0.0116    5.3851 H         1 <0>         0.1414
     49 H18        -0.9005    1.8461    4.9731 H         1 <0>         0.1532
     50 H19        -2.7402    2.6571    4.4015 H         1 <0>         0.0657
     51 H20        -1.3649    3.7835    4.3125 H         1 <0>         0.0646
     52 H21        -2.8712    4.1470    3.4365 H         1 <0>         0.1147
     53 H22         1.6349   -2.0613    4.5323 H         1 <0>         0.1437
     54 H23         1.7638   -2.3498    2.7806 H         1 <0>         0.1376
     55 H24         3.0333   -3.5315    2.3737 H         1 <0>         0.1217
     56 H25         4.7913   -4.0387    2.6055 H         1 <0>         0.1356
     57 H26         4.4871   -3.9445    5.1226 H         1 <0>         0.1367
     58 H27         2.7291   -3.4373    4.8915 H         1 <0>         0.1264
     59 H28         6.3810   -3.7695    4.0068 H         1 <0>         0.1331
     60 H29         8.7319   -3.0807    4.2560 H         1 <0>         0.1393
     61 H30         9.3155   -0.6890    4.3058 H         1 <0>         0.1376
     62 H31         7.5490    1.0138    4.0983 H         1 <0>         0.1357
     63 H32         5.1991    0.3250    3.8398 H         1 <0>         0.1123
     64 H33        -2.2553   -0.2038   -1.9258 H         1 <0>         0.3911
     65 N1         -0.3343    0.7343   -4.3198 N.4       1 <0>        -0.3920
     66 H34        -1.3506    0.8757   -4.2814 H         1 <0>         0.4362
     67 N2          3.2435   -1.0816    3.5856 N.4       1 <0>        -0.4823
     68 H35         3.3480   -0.4255    4.3685 H         1 <0>         0.4357
     69 H36         3.4307   -0.5928    2.7022 H         1 <0>         0.4307
@<TRIPOS>BOND
     1    1   33 1
     2    1   34 1
     3    1   35 1
     4    1   65 1
     5    2    3 1
     6    2   36 1
     7    2   37 1
     8    2   65 1
     9    3    8 ar
    10    3    4 ar
    11    4    5 ar
    12    4   38 1
    13    5    6 ar
    14    5   39 1
    15    6    7 ar
    16    6   40 1
    17    7    8 ar
    18    7   41 1
    19    8   42 1
    20    9   10 1
    21    9   43 1
    22    9   44 1
    23    9   65 1
    24   10   11 1
    25   10   12 1
    26   10   32 1
    27   12   13 1
    28   12   45 1
    29   12   46 1
    30   13   14 1
    31   14   19 ar
    32   14   15 ar
    33   15   16 ar
    34   15   47 1
    35   16   17 ar
    36   16   22 1
    37   17   18 ar
    38   17   48 1
    39   18   19 ar
    40   18   49 1
    41   19   20 1
    42   20   21 1
    43   21   50 1
    44   21   51 1
    45   21   52 1
    46   22   53 1
    47   22   54 1
    48   22   67 1
    49   23   25 1
    50   23   24 1
    51   23   26 1
    52   23   67 1
    53   24   25 1
    54   24   55 1
    55   24   56 1
    56   25   57 1
    57   25   58 1
    58   26   31 ar
    59   26   27 ar
    60   27   28 ar
    61   27   59 1
    62   28   29 ar
    63   28   60 1
    64   29   30 ar
    65   29   61 1
    66   30   31 ar
    67   30   62 1
    68   31   63 1
    69   32   64 1
    70   65   66 1
    71   67   68 1
    72   67   69 1
@<TRIPOS>MOLECULE
ZINC13782012
   63    65     0     0     0
SMALL
USER_CHARGES
3-[3-[(4-bromophenyl)methyl-(2-pyridyl)amino]propyl]-1-[3-(2-pyridylamino)propyl]thiourea
@<TRIPOS>ATOM
      1 C1         10.5533   11.3507   -8.9502 C.ar      1 <0>         0.0504
      2 C2         10.5655   11.4402  -10.3360 C.ar      1 <0>        -0.1669
      3 C3          9.5109   10.9171  -11.0566 C.ar      1 <0>         0.1557
      4 C4          8.4475   10.2307   -9.1266 C.ar      1 <0>         0.4510
      5 C5          9.4763   10.7359   -8.3379 C.ar      1 <0>        -0.2007
      6 N1          7.3590    9.6104   -8.5245 N.pl3     1 <0>        -0.7066
      7 C6          7.2987    9.4908   -7.0657 C.3       1 <0>         0.1127
      8 C7          6.0077    8.7737   -6.6656 C.3       1 <0>        -0.1507
      9 C8          5.9448    8.6488   -5.1420 C.3       1 <0>         0.1277
     10 N2          4.7086    7.9622   -4.7590 N.pl3     1 <0>        -0.6876
     11 C9          4.4373    7.7388   -3.4579 C.2       1 <0>         0.5548
     12 S1          5.5372    8.2572   -2.2527 S.2       1 <0>        -0.6095
     13 N3          3.3000    7.1071   -3.1055 N.pl3     1 <0>        -0.6892
     14 C10         3.0051    6.8642   -1.6912 C.3       1 <0>         0.1255
     15 C11         1.6646    6.1371   -1.5673 C.3       1 <0>        -0.1595
     16 C12         1.3566    5.8834   -0.0903 C.3       1 <0>         0.0988
     17 N4          0.0730    5.1872    0.0283 N.pl3     1 <0>        -0.5820
     18 C13        -1.1680    5.9554    0.1543 C.3       1 <0>         0.1511
     19 C14        -1.4569    6.2076    1.6117 C.ar      1 <0>        -0.1239
     20 C15        -2.2198    5.3067    2.3310 C.ar      1 <0>        -0.0989
     21 C16        -2.4809    5.5352    3.6689 C.ar      1 <0>        -0.0874
     22 C17        -1.9876    6.6709    4.2855 C.ar      1 <0>        -0.0748
     23 C18        -1.2287    7.5748    3.5641 C.ar      1 <0>        -0.0866
     24 C19        -0.9636    7.3428    2.2275 C.ar      1 <0>        -0.0923
     25 Br1        -2.3500    6.9874    6.1142 Br        1 <0>        -0.0245
     26 C20         0.0327    3.7978    0.0212 C.ar      1 <0>         0.4531
     27 C21        -1.1952    3.1436    0.0294 C.ar      1 <0>        -0.2043
     28 C22        -1.2206    1.7609    0.0173 C.ar      1 <0>         0.0487
     29 C23        -0.0126    1.0758    0.0080 C.ar      1 <0>        -0.1673
     30 C24         1.1691    1.7890    0.0005 C.ar      1 <0>         0.1516
     31 H1         11.3663   11.7526   -8.3637 H         1 <0>         0.1765
     32 H2         11.3920   11.9139  -10.8448 H         1 <0>         0.1852
     33 H3          9.5164   10.9845  -12.1345 H         1 <0>         0.1968
     34 H4          9.4347   10.6489   -7.2622 H         1 <0>         0.1811
     35 H5          6.6393    9.2566   -9.0703 H         1 <0>         0.4179
     36 H6          7.3158   10.4847   -6.6186 H         1 <0>         0.0968
     37 H7          8.1566    8.9187   -6.7123 H         1 <0>         0.0965
     38 H8          5.9907    7.7798   -7.1127 H         1 <0>         0.0849
     39 H9          5.1499    9.3458   -7.0190 H         1 <0>         0.0854
     40 H10         5.9618    9.6428   -4.6950 H         1 <0>         0.0974
     41 H11         6.8026    8.0767   -4.7886 H         1 <0>         0.0969
     42 H12         4.0854    7.6685   -5.4418 H         1 <0>         0.3982
     43 H13         2.6768    6.8134   -3.7883 H         1 <0>         0.3980
     44 H14         2.9525    7.8159   -1.1623 H         1 <0>         0.0984
     45 H15         3.7933    6.2498   -1.2560 H         1 <0>         0.0924
     46 H16         1.7172    5.1855   -2.0962 H         1 <0>         0.0742
     47 H17         0.8764    6.7515   -2.0025 H         1 <0>         0.0913
     48 H18         1.3039    6.8351    0.4385 H         1 <0>         0.1206
     49 H19         2.1447    5.2690    0.3449 H         1 <0>         0.0847
     50 H20        -1.0602    6.9077   -0.3648 H         1 <0>         0.1152
     51 H21        -1.9904    5.3922   -0.2869 H         1 <0>         0.1080
     52 H22        -2.6084    4.4221    1.8484 H         1 <0>         0.1306
     53 H23        -3.0733    4.8290    4.2318 H         1 <0>         0.1409
     54 H24        -0.8430    8.4614    4.0452 H         1 <0>         0.1415
     55 H25        -0.3708    8.0483    1.6643 H         1 <0>         0.1337
     56 H26        -2.1160    3.7079    0.0405 H         1 <0>         0.1801
     57 H27        -2.1588    1.2259    0.0192 H         1 <0>         0.1758
     58 H28         0.0021   -0.0041    0.0020 H         1 <0>         0.1841
     59 H29         2.1107    1.2603   -0.0113 H         1 <0>         0.1947
     60 N5          8.4395   10.3010  -10.4891 N.ar      1 <0>        -0.5368
     61 H30         7.6726    9.9130  -11.0508 H         1 <0>         0.4677
     62 N6          1.2320    3.1475    0.0068 N.ar      1 <0>        -0.5400
     63 H31         2.1262    3.6522    0.0010 H         1 <0>         0.4630
@<TRIPOS>BOND
     1    1    5 ar
     2    1    2 ar
     3    1   31 1
     4    2    3 ar
     5    2   32 1
     6    3   33 1
     7    3   60 ar
     8    4    5 ar
     9    4    6 1
    10    4   60 ar
    11    5   34 1
    12    6    7 1
    13    6   35 1
    14    7    8 1
    15    7   36 1
    16    7   37 1
    17    8    9 1
    18    8   38 1
    19    8   39 1
    20    9   10 1
    21    9   40 1
    22    9   41 1
    23   10   11 1
    24   10   42 1
    25   11   12 2
    26   11   13 1
    27   13   14 1
    28   13   43 1
    29   14   15 1
    30   14   44 1
    31   14   45 1
    32   15   16 1
    33   15   46 1
    34   15   47 1
    35   16   17 1
    36   16   48 1
    37   16   49 1
    38   17   18 1
    39   17   26 1
    40   18   19 1
    41   18   50 1
    42   18   51 1
    43   19   24 ar
    44   19   20 ar
    45   20   21 ar
    46   20   52 1
    47   21   22 ar
    48   21   53 1
    49   22   23 ar
    50   22   25 1
    51   23   24 ar
    52   23   54 1
    53   24   55 1
    54   26   27 ar
    55   26   62 ar
    56   27   28 ar
    57   27   56 1
    58   28   29 ar
    59   28   57 1
    60   29   30 ar
    61   29   58 1
    62   30   59 1
    63   30   62 ar
    64   60   61 1
    65   62   63 1
@<TRIPOS>MOLECULE
ZINC16989797
   78    77     0     0     0
SMALL
USER_CHARGES

@<TRIPOS>ATOM
      1 C1         -0.0184    1.5028    0.0103 C.3       1 <0>        -0.1295
      2 C2          0.0021   -0.0041    0.0020 C.2       1 <0>        -0.1212
      3 C3          0.5875   -0.6566    0.9755 C.2       1 <0>        -0.1688
      4 C4          0.6079   -2.1634    0.9672 C.3       1 <0>         0.0447
      5 C5         -0.1182   -2.6764   -0.2779 C.3       1 <0>         0.0446
      6 C6         -1.5456   -2.1935   -0.2617 C.2       1 <0>         0.4772
      7 O1         -1.9415   -1.5092    0.6520 O.2       1 <0>        -0.4593
      8 O2         -2.3773   -2.5236   -1.2623 O.3       1 <0>        -0.3545
      9 C7         -3.7163   -2.0312   -1.1821 C.3       1 <0>         0.0565
     10 H1         -3.7228   -1.0812   -0.6477 H         1 <0>         0.1088
     11 C8         -4.2697   -1.8260   -2.5937 C.3       1 <0>        -0.0061
     12 N1         -3.4330   -0.8548   -3.3112 N.4       1 <0>        -0.3898
     13 C9         -3.8915   -0.7472   -4.7027 C.3       1 <0>        -0.0493
     14 C10        -3.5365    0.4572   -2.6587 C.3       1 <0>        -0.0586
     15 C11        -4.5878   -3.0427   -0.4348 C.3       1 <0>        -0.1759
     16 C12         0.5735   -2.1579   -1.5123 C.2       1 <0>        -0.1688
     17 C13         1.6294   -1.3910   -1.3981 C.2       1 <0>        -0.1212
     18 C14         2.3212   -0.8724   -2.6324 C.3       1 <0>        -0.1295
     19 C15        -0.0978   -4.1833   -0.2862 C.2       1 <0>        -0.1843
     20 C16         0.4876   -4.8358    0.6872 C.2       1 <0>        -0.1059
     21 C17         0.5081   -6.3426    0.6789 C.3       1 <0>        -0.1335
     22 C18         2.0354   -2.6463    0.9510 C.2       1 <0>         0.4772
     23 O3          2.4313   -3.3307    0.0373 O.2       1 <0>        -0.4594
     24 O4          2.8670   -2.3162    1.9516 O.3       1 <0>        -0.3545
     25 C19         4.2061   -2.8086    1.8714 C.3       1 <0>         0.0565
     26 H2          4.4928   -2.9128    0.8249 H         1 <0>         0.1088
     27 C20         5.1529   -1.8267    2.5643 C.3       1 <0>        -0.0061
     28 N2          5.0718   -0.5181    1.9018 N.4       1 <0>        -0.3898
     29 C21         5.8886    0.4554    2.6388 C.3       1 <0>        -0.0493
     30 C22         5.5717   -0.6343    0.5253 C.3       1 <0>        -0.0586
     31 C23         4.2905   -4.1716    2.5614 C.3       1 <0>        -0.1759
     32 C24        -0.0838   -2.6819    2.2015 C.2       1 <0>        -0.1843
     33 C25        -1.1397   -3.4489    2.0873 C.2       1 <0>        -0.1059
     34 C26        -1.8314   -3.9674    3.3217 C.3       1 <0>        -0.1335
     35 H3          1.0042    1.8801    0.0026 H         1 <0>         0.0709
     36 H4         -0.5455    1.8639   -0.8728 H         1 <0>         0.0621
     37 H5         -0.5286    1.8543    0.9071 H         1 <0>         0.0774
     38 H6         -0.4659   -0.5460   -0.8065 H         1 <0>         0.1068
     39 H7          1.0555   -0.1146    1.7840 H         1 <0>         0.1293
     40 H8         -4.2633   -2.7759   -3.1282 H         1 <0>         0.1465
     41 H9         -5.2911   -1.4504   -2.5325 H         1 <0>         0.1538
     42 H10        -4.9293   -0.4144   -4.7186 H         1 <0>         0.1269
     43 H11        -3.2707   -0.0266   -5.2351 H         1 <0>         0.1274
     44 H12        -3.8146   -1.7207   -5.1869 H         1 <0>         0.1273
     45 H13        -3.1964    0.3773   -1.6262 H         1 <0>         0.1177
     46 H14        -2.9157    1.1778   -3.1911 H         1 <0>         0.1292
     47 H15        -4.5744    0.7900   -2.6745 H         1 <0>         0.1305
     48 H16        -4.5813   -3.9926   -0.9693 H         1 <0>         0.0820
     49 H17        -4.1936   -3.1889    0.5708 H         1 <0>         0.0829
     50 H18        -5.6092   -2.6671   -0.3737 H         1 <0>         0.0909
     51 H19         0.1988   -2.4185   -2.4911 H         1 <0>         0.1293
     52 H20         2.0042   -1.1303   -0.4193 H         1 <0>         0.1068
     53 H21         1.6223   -0.2731   -3.2159 H         1 <0>         0.0710
     54 H22         3.1721   -0.2569   -2.3406 H         1 <0>         0.0621
     55 H23         2.6695   -1.7123   -3.2336 H         1 <0>         0.0774
     56 H24        -0.5658   -4.7252   -1.0947 H         1 <0>         0.1325
     57 H25         0.9556   -4.2938    1.4957 H         1 <0>         0.1109
     58 H26         1.0353   -6.7037    1.5620 H         1 <0>         0.0666
     59 H27        -0.5145   -6.7199    0.6867 H         1 <0>         0.0749
     60 H28         1.0183   -6.6941   -0.2178 H         1 <0>         0.0761
     61 H29         4.8661   -1.7225    3.6107 H         1 <0>         0.1464
     62 H30         6.1743   -2.2022    2.5031 H         1 <0>         0.1538
     63 H31         6.9258    0.1204    2.6560 H         1 <0>         0.1269
     64 H32         5.8285    1.4264    2.1472 H         1 <0>         0.1275
     65 H33         5.5177    0.5416    3.6601 H         1 <0>         0.1273
     66 H34         4.9657   -1.3566   -0.0215 H         1 <0>         0.1177
     67 H35         5.5116    0.3367    0.0337 H         1 <0>         0.1291
     68 H36         6.6089   -0.9692    0.5425 H         1 <0>         0.1305
     69 H37         4.0037   -4.0674    3.6079 H         1 <0>         0.0820
     70 H38         3.6159   -4.8712    2.0678 H         1 <0>         0.0829
     71 H39         5.3119   -4.5472    2.5003 H         1 <0>         0.0909
     72 H40         0.2910   -2.4213    3.1803 H         1 <0>         0.1325
     73 H41        -1.5144   -3.7095    1.1085 H         1 <0>         0.1109
     74 H42        -1.1326   -4.5668    3.9051 H         1 <0>         0.0749
     75 H43        -2.1798   -3.1276    3.9229 H         1 <0>         0.0761
     76 H44        -2.6823   -4.5830    3.0298 H         1 <0>         0.0666
     77 H45        -2.4723   -1.1629   -3.2965 H         1 <0>         0.4270
     78 H46         4.1118   -0.2080    1.8859 H         1 <0>         0.4270
@<TRIPOS>BOND
     1    1    2 1
     2    1   35 1
     3    1   36 1
     4    1   37 1
     5    2    3 2
     6    2   38 1
     7    3    4 1
     8    3   39 1
     9    4    5 1
    10    4   22 1
    11    4   32 1
    12    5    6 1
    13    5   16 1
    14    5   19 1
    15    6    7 2
    16    6    8 1
    17    8    9 1
    18    9   10 1
    19    9   11 1
    20    9   15 1
    21   11   12 1
    22   11   40 1
    23   11   41 1
    24   12   13 1
    25   12   14 1
    26   12   77 1
    27   13   42 1
    28   13   43 1
    29   13   44 1
    30   14   45 1
    31   14   46 1
    32   14   47 1
    33   15   48 1
    34   15   49 1
    35   15   50 1
    36   16   17 2
    37   16   51 1
    38   17   18 1
    39   17   52 1
    40   18   53 1
    41   18   54 1
    42   18   55 1
    43   19   20 2
    44   19   56 1
    45   20   21 1
    46   20   57 1
    47   21   58 1
    48   21   59 1
    49   21   60 1
    50   22   23 2
    51   22   24 1
    52   24   25 1
    53   25   26 1
    54   25   27 1
    55   25   31 1
    56   27   28 1
    57   27   61 1
    58   27   62 1
    59   28   29 1
    60   28   30 1
    61   28   78 1
    62   29   63 1
    63   29   64 1
    64   29   65 1
    65   30   66 1
    66   30   67 1
    67   30   68 1
    68   31   69 1
    69   31   70 1
    70   31   71 1
    71   32   33 2
    72   32   72 1
    73   33   34 1
    74   33   73 1
    75   34   74 1
    76   34   75 1
    77   34   76 1
@<TRIPOS>MOLECULE
ZINC50137798
   65    67     0     0     0
SMALL
USER_CHARGES

@<TRIPOS>ATOM
      1 C1         -0.0163    1.3513    0.0095 C.2       1 <0>        -0.1815
      2 C2          1.1833    2.0380    0.0017 C.2       1 <0>        -0.0818
      3 C3          2.3426    1.3358   -0.0131 C.2       1 <0>        -0.2731
      4 S1          1.7535   -0.3495   -0.0166 S.3       1 <0>         0.0930
      5 C4          0.0021   -0.0041    0.0020 C.2       1 <0>        -0.1139
      6 C5          3.7608    1.8454   -0.0244 C.3       1 <0>         0.0981
      7 N1          4.2350    2.0040    1.3569 N.4       1 <0>        -0.3824
      8 C6          3.4452    3.0437    2.0275 C.3       1 <0>        -0.0140
      9 C7          3.8807    3.1565    3.4901 C.3       1 <0>        -0.1434
     10 C8          5.3660    3.5248    3.5478 C.3       1 <0>        -0.1334
     11 C9          6.1729    2.4727    2.7815 C.3       1 <0>        -0.1220
     12 H1          6.0624    1.5037    3.2683 H         1 <0>         0.1025
     13 C10         5.6525    2.3852    1.3452 C.3       1 <0>        -0.0018
     14 C11         7.6498    2.8720    2.7674 C.3       1 <0>         0.1460
     15 N2          8.1764    2.8439    4.1342 N.am      1 <0>        -0.7453
     16 C12         9.4653    3.1620    4.3664 C.2       1 <0>         0.7075
     17 O1         10.1911    3.4722    3.4415 O.2       1 <0>        -0.5751
     18 N3          9.9498    3.1361    5.6238 N.am      1 <0>        -0.7479
     19 C13        11.3508    3.4819    5.8763 C.3       1 <0>         0.1413
     20 C14        11.6408    3.3738    7.3746 C.3       1 <0>        -0.1627
     21 C15        13.1040    3.7349    7.6383 C.3       1 <0>        -0.0091
     22 N4         13.3824    3.6311    9.0769 N.4       1 <0>        -0.5069
     23 C16        14.7873    3.9778    9.3300 C.3       1 <0>         0.0249
     24 C17        15.6960    2.9413    8.6661 C.3       1 <0>        -0.1410
     25 C18        17.1592    3.3024    8.9297 C.3       1 <0>        -0.1189
     26 C19        17.4175    3.3157   10.4377 C.3       1 <0>        -0.1329
     27 C20        16.5088    4.3522   11.1017 C.3       1 <0>        -0.1186
     28 C21        15.0456    3.9911   10.8380 C.3       1 <0>        -0.1405
     29 H2         -0.9542    1.8866    0.0258 H         1 <0>         0.1506
     30 H3          1.1967    3.1179    0.0070 H         1 <0>         0.1424
     31 H4         -0.8275   -0.6955    0.0065 H         1 <0>         0.2008
     32 H5          4.3986    1.1333   -0.5480 H         1 <0>         0.1431
     33 H6          3.7967    2.8084   -0.5337 H         1 <0>         0.1471
     34 H7          3.6034    3.9990    1.5271 H         1 <0>         0.1312
     35 H8          2.3881    2.7817    1.9828 H         1 <0>         0.1328
     36 H9          3.2943    3.9302    3.9858 H         1 <0>         0.1148
     37 H10         3.7227    2.2017    3.9916 H         1 <0>         0.0879
     38 H11         5.5169    4.5032    3.0917 H         1 <0>         0.0879
     39 H12         5.6949    3.5510    4.5866 H         1 <0>         0.0908
     40 H13         6.2249    1.6371    0.7968 H         1 <0>         0.1374
     41 H14         5.7636    3.3545    0.8593 H         1 <0>         0.1370
     42 H15         8.2096    2.1714    2.1478 H         1 <0>         0.0811
     43 H16         7.7503    3.8779    2.3599 H         1 <0>         0.0815
     44 H17         7.5974    2.5964    4.8720 H         1 <0>         0.3989
     45 H18         9.3708    2.8886    6.3617 H         1 <0>         0.3996
     46 H19        11.9984    2.7958    5.3304 H         1 <0>         0.0800
     47 H20        11.5391    4.5023    5.5425 H         1 <0>         0.0801
     48 H21        10.9932    4.0599    7.9205 H         1 <0>         0.0952
     49 H22        11.4526    2.3534    7.7084 H         1 <0>         0.0951
     50 H23        13.7516    3.0487    7.0924 H         1 <0>         0.1382
     51 H24        13.2923    4.7553    7.3045 H         1 <0>         0.1374
     52 H25        12.7830    4.2662    9.5822 H         1 <0>         0.4284
     53 H26        14.9984    4.9640    8.9166 H         1 <0>         0.1406
     54 H27        15.4850    1.9551    9.0796 H         1 <0>         0.0872
     55 H28        15.5120    2.9318    7.5918 H         1 <0>         0.0864
     56 H29        17.8066    2.5639    8.4567 H         1 <0>         0.0859
     57 H30        17.3703    4.2886    8.5162 H         1 <0>         0.0754
     58 H31        17.2065    2.3295   10.8512 H         1 <0>         0.0707
     59 H32        18.4599    3.5729   10.6255 H         1 <0>         0.0813
     60 H33        16.6928    4.3616   12.1760 H         1 <0>         0.0866
     61 H34        16.7199    5.3384   10.6882 H         1 <0>         0.0754
     62 H35        14.3982    4.7295   11.3110 H         1 <0>         0.0876
     63 H36        14.8346    3.0049   11.2515 H         1 <0>         0.0872
     64 H37        13.2082    2.6865    9.3859 H         1 <0>         0.4264
     65 H38         4.1266    1.1309    1.8510 H         1 <0>         0.4227
@<TRIPOS>BOND
     1    1    5 2
     2    1    2 1
     3    1   29 1
     4    2    3 2
     5    2   30 1
     6    3    4 1
     7    3    6 1
     8    4    5 1
     9    5   31 1
    10    6    7 1
    11    6   32 1
    12    6   33 1
    13    7   13 1
    14    7    8 1
    15    7   65 1
    16    8    9 1
    17    8   34 1
    18    8   35 1
    19    9   10 1
    20    9   36 1
    21    9   37 1
    22   10   11 1
    23   10   38 1
    24   10   39 1
    25   11   12 1
    26   11   13 1
    27   11   14 1
    28   13   40 1
    29   13   41 1
    30   14   15 1
    31   14   42 1
    32   14   43 1
    33   15   16 am
    34   15   44 1
    35   16   17 2
    36   16   18 am
    37   18   19 1
    38   18   45 1
    39   19   20 1
    40   19   46 1
    41   19   47 1
    42   20   21 1
    43   20   48 1
    44   20   49 1
    45   21   22 1
    46   21   50 1
    47   21   51 1
    48   22   23 1
    49   22   52 1
    50   22   64 1
    51   23   28 1
    52   23   24 1
    53   23   53 1
    54   24   25 1
    55   24   54 1
    56   24   55 1
    57   25   26 1
    58   25   56 1
    59   25   57 1
    60   26   27 1
    61   26   58 1
    62   26   59 1
    63   27   28 1
    64   27   60 1
    65   27   61 1
    66   28   62 1
    67   28   63 1
@<TRIPOS>MOLECULE
ZINC04299441
   39    40     0     0     0
SMALL
USER_CHARGES
1-(2-chlorophenyl)-3-[2-[[5-(trifluoromethyl)-2-pyridyl]amino]ethyl]urea
@<TRIPOS>ATOM
      1 C1         -5.0622    5.6357   12.7616 C.ar      1 <0>        -0.0949
      2 C2         -4.4213    6.5251   13.6046 C.ar      1 <0>        -0.1159
      3 C3         -3.1031    6.8732   13.3744 C.ar      1 <0>        -0.0905
      4 C4         -2.4218    6.3325   12.3000 C.ar      1 <0>        -0.0627
      5 C5         -3.0633    5.4383   11.4518 C.ar      1 <0>         0.1637
      6 C6         -4.3885    5.0951   11.6838 C.ar      1 <0>        -0.1084
      7 N1         -2.3767    4.8890   10.3624 N.am      1 <0>        -0.6774
      8 C7         -3.0301    4.6396    9.2103 C.2       1 <0>         0.7121
      9 O1         -4.2314    4.8149    9.1425 O.2       1 <0>        -0.5623
     10 N2         -2.3519    4.1959    8.1334 N.am      1 <0>        -0.7422
     11 C8         -3.0622    3.9249    6.8811 C.3       1 <0>         0.1267
     12 C9         -2.0676    3.4363    5.8261 C.3       1 <0>         0.0902
     13 N3         -2.7779    3.1652    4.5738 N.pl3     1 <0>        -0.6843
     14 C10        -2.0785    2.7076    3.4631 C.ar      1 <0>         0.4724
     15 C11        -0.7039    2.5092    3.5475 C.ar      1 <0>        -0.1933
     16 C12        -0.0206    2.0536    2.4348 C.ar      1 <0>         0.0853
     17 C13        -0.7374    1.8107    1.2703 C.ar      1 <0>        -0.2407
     18 C14        -2.0992    2.0347    1.2555 C.ar      1 <0>         0.2230
     19 C15        -0.0343    1.3135    0.0335 C.3       1 <0>         0.5272
     20 F1         -0.0202   -0.0854    0.0357 F         1 <0>        -0.1585
     21 F2          1.2799    1.7931    0.0196 F         1 <0>        -0.1580
     22 F3         -0.7099    1.7713   -1.1028 F         1 <0>        -0.1643
     23 Cl1        -0.7671    6.7706   12.0106 Cl        1 <0>        -0.0643
     24 H1         -6.0921    5.3665   12.9439 H         1 <0>         0.1357
     25 H2         -4.9517    6.9491   14.4444 H         1 <0>         0.1375
     26 H3         -2.6055    7.5683   14.0343 H         1 <0>         0.1408
     27 H4         -4.8911    4.4035   11.0239 H         1 <0>         0.1488
     28 H5         -1.4307    4.6879   10.4367 H         1 <0>         0.4108
     29 H6         -1.3936    4.0561    8.1875 H         1 <0>         0.4037
     30 H7         -3.5435    4.8382    6.5313 H         1 <0>         0.0847
     31 H8         -3.8180    3.1580    7.0507 H         1 <0>         0.0848
     32 H9         -1.5864    2.5230    6.1759 H         1 <0>         0.1034
     33 H10        -1.3118    4.2032    5.6565 H         1 <0>         0.1034
     34 H11        -3.7362    3.3051    4.5197 H         1 <0>         0.4268
     35 H12        -0.1778    2.7078    4.4696 H         1 <0>         0.1931
     36 H13         1.0464    1.8906    2.4705 H         1 <0>         0.1877
     37 H14        -2.6596    1.8518    0.3506 H         1 <0>         0.2101
     38 N4         -2.8042    2.4766    2.3312 N.ar      1 <0>        -0.5332
     39 H15        -3.8192    2.6269    2.2938 H         1 <0>         0.4787
@<TRIPOS>BOND
     1    1    6 ar
     2    1    2 ar
     3    1   24 1
     4    2    3 ar
     5    2   25 1
     6    3    4 ar
     7    3   26 1
     8    4    5 ar
     9    4   23 1
    10    5    6 ar
    11    5    7 1
    12    6   27 1
    13    7    8 am
    14    7   28 1
    15    8    9 2
    16    8   10 am
    17   10   11 1
    18   10   29 1
    19   11   12 1
    20   11   30 1
    21   11   31 1
    22   12   13 1
    23   12   32 1
    24   12   33 1
    25   13   14 1
    26   13   34 1
    27   14   15 ar
    28   14   38 ar
    29   15   16 ar
    30   15   35 1
    31   16   17 ar
    32   16   36 1
    33   17   18 ar
    34   17   19 1
    35   18   37 1
    36   18   38 ar
    37   19   20 1
    38   19   21 1
    39   19   22 1
    40   38   39 1
@<TRIPOS>MOLECULE
ZINC35382696
   30    32     0     0     0
SMALL
USER_CHARGES

@<TRIPOS>ATOM
      1 C1         -0.0162    1.3408    0.0094 C.2       1 <0>        -0.1178
      2 C2          1.3313    1.7690   -0.0012 C.2       1 <0>        -0.1547
      3 C3          2.0930    0.6591   -0.0144 C.2       1 <0>         0.0086
      4 O1          1.2822   -0.4116   -0.0124 O.3       1 <0>        -0.1622
      5 C4          0.0021   -0.0041    0.0020 C.2       1 <0>        -0.0875
      6 C5         -1.2084   -0.9017    0.0092 C.3       1 <0>         0.2006
      7 H1         -2.0719   -0.3444    0.3723 H         1 <0>         0.1783
      8 C6         -1.4788   -1.3916   -1.3901 C.ar      1 <0>        -0.1724
      9 C7         -1.0785   -2.6609   -1.7705 C.ar      1 <0>        -0.0537
     10 C8         -1.3271   -3.1049   -3.0494 C.ar      1 <0>        -0.1242
     11 C9         -1.9780   -2.2937   -3.9709 C.ar      1 <0>         0.2007
     12 C10        -2.3779   -1.0173   -3.5819 C.ar      1 <0>        -0.1224
     13 C11        -2.1330   -0.5760   -2.2965 C.ar      1 <0>         0.0348
     14 Cl1        -2.6415    1.0133   -1.8175 Cl        1 <0>        -0.0285
     15 N1         -2.1137   -2.9604   -5.1891 N.am      1 <0>        -0.6584
     16 C12        -1.5870   -4.1960   -5.1544 C.2       1 <0>         0.5287
     17 O2         -1.5636   -4.9950   -6.0665 O.2       1 <0>        -0.4684
     18 C13        -1.0281   -4.4034   -3.7628 C.3       1 <0>        -0.1193
     19 N2         -0.9609   -2.0504    0.8909 N.4       1 <0>        -0.6366
     20 Br1         3.9834    0.6151   -0.0336 Br        1 <0>         0.0883
     21 H2         -0.8921    1.9724    0.0252 H         1 <0>         0.1689
     22 H3          1.6821    2.7905    0.0004 H         1 <0>         0.1757
     23 H4         -0.5713   -3.3020   -1.0647 H         1 <0>         0.1360
     24 H5         -2.8847   -0.3734   -4.2855 H         1 <0>         0.1561
     25 H6         -2.5399   -2.5761   -5.9712 H         1 <0>         0.4251
     26 H7          0.0471   -4.5771   -3.8050 H         1 <0>         0.1365
     27 H8         -1.5312   -5.2349   -3.2692 H         1 <0>         0.1367
     28 H9         -0.1616   -2.5663    0.5548 H         1 <0>         0.4385
     29 H10        -0.7799   -1.7224    1.8278 H         1 <0>         0.4467
     30 H11        -1.7714   -2.6514    0.8957 H         1 <0>         0.4460
@<TRIPOS>BOND
     1    1    5 2
     2    1    2 1
     3    1   21 1
     4    2    3 2
     5    2   22 1
     6    3    4 1
     7    3   20 1
     8    4    5 1
     9    5    6 1
    10    6    7 1
    11    6    8 1
    12    6   19 1
    13    8   13 ar
    14    8    9 ar
    15    9   10 ar
    16    9   23 1
    17   10   18 1
    18   10   11 ar
    19   11   12 ar
    20   11   15 1
    21   12   13 ar
    22   12   24 1
    23   13   14 1
    24   15   16 am
    25   15   25 1
    26   16   17 2
    27   16   18 1
    28   18   26 1
    29   18   27 1
    30   19   28 1
    31   19   29 1
    32   19   30 1
@<TRIPOS>MOLECULE
ZINC42405740
   46    47     0     0     0
SMALL
USER_CHARGES

@<TRIPOS>ATOM
      1 C1          5.4219    2.8537    0.9687 C.3       1 <0>        -0.1559
      2 C2          4.2710    1.8557    1.1103 C.3       1 <0>        -0.1517
      3 C3          4.6182    0.8262    2.1876 C.3       1 <0>        -0.0126
      4 N1          3.5131   -0.1320    2.3235 N.4       1 <0>        -0.5105
      5 C4          3.8466   -1.1205    3.3579 C.3       1 <0>         0.0549
      6 C5          2.7018   -2.0876    3.5161 C.ar      1 <0>        -0.1705
      7 C6          1.8491   -1.9784    4.5974 C.ar      1 <0>        -0.0770
      8 C7          0.7982   -2.8647    4.7435 C.ar      1 <0>        -0.0919
      9 C8          0.5970   -3.8643    3.8077 C.ar      1 <0>        -0.0540
     10 C9          1.4467   -3.9792    2.7242 C.ar      1 <0>        -0.0575
     11 C10         2.4997   -3.0860    2.5719 C.ar      1 <0>         0.2100
     12 N2          3.3571   -3.1955    1.4748 N.pl3     1 <0>        -0.6751
     13 C11         2.9968   -2.6004    0.1807 C.3       1 <0>         0.1305
     14 C12         3.0899   -3.6804   -0.9017 C.3       1 <0>        -0.1403
     15 C13         4.4829   -4.3131   -0.8670 C.3       1 <0>        -0.1159
     16 C14         4.7115   -4.9730    0.4947 C.3       1 <0>        -0.1291
     17 C15         4.6394   -3.9028    1.5945 C.3       1 <0>         0.1531
     18 H1          5.4597   -3.1952    1.4740 H         1 <0>         0.0802
     19 C16         4.7296   -4.5596    2.9479 C.2       1 <0>         0.5029
     20 O1          3.7495   -5.0823    3.4348 O.2       1 <0>        -0.5102
     21 N3          5.8995   -4.5660    3.6171 N.am      1 <0>        -0.8514
     22 Br1        -0.8416   -5.0745    4.0126 Br        1 <0>        -0.0217
     23 H2          6.3304    2.3227    0.6844 H         1 <0>         0.0670
     24 H3          5.1745    3.5871    0.2012 H         1 <0>         0.0782
     25 H4          5.5809    3.3624    1.9196 H         1 <0>         0.0678
     26 H5          3.3625    2.3867    1.3946 H         1 <0>         0.0876
     27 H6          4.1120    1.3471    0.1595 H         1 <0>         0.0853
     28 H7          5.5267    0.2952    1.9033 H         1 <0>         0.1301
     29 H8          4.7772    1.3349    3.1384 H         1 <0>         0.1339
     30 H9          2.6722    0.3595    2.5867 H         1 <0>         0.4277
     31 H10         4.7441   -1.6648    3.0643 H         1 <0>         0.1286
     32 H11         4.0245   -0.6100    4.3044 H         1 <0>         0.1385
     33 H12         2.0038   -1.1998    5.3297 H         1 <0>         0.1408
     34 H13         0.1330   -2.7770    5.5898 H         1 <0>         0.1440
     35 H14         1.2897   -4.7596    1.9943 H         1 <0>         0.1397
     36 H15         1.9779   -2.2157    0.2264 H         1 <0>         0.0820
     37 H16         3.6859   -1.7887   -0.0528 H         1 <0>         0.0521
     38 H17         2.3374   -4.4470   -0.7165 H         1 <0>         0.0749
     39 H18         2.9188   -3.2309   -1.8799 H         1 <0>         0.0803
     40 H19         4.5600   -5.0649   -1.6524 H         1 <0>         0.0766
     41 H20         5.2362   -3.5418   -1.0277 H         1 <0>         0.0658
     42 H21         3.9438   -5.7274    0.6668 H         1 <0>         0.0799
     43 H22         5.6946   -5.4435    0.5105 H         1 <0>         0.0795
     44 H23         6.6833   -4.1480    3.2276 H         1 <0>         0.4021
     45 H24         5.9576   -4.9887    4.4882 H         1 <0>         0.4098
     46 H25         3.3660   -0.6029    1.4433 H         1 <0>         0.4212
@<TRIPOS>BOND
     1    1    2 1
     2    1   23 1
     3    1   24 1
     4    1   25 1
     5    2    3 1
     6    2   26 1
     7    2   27 1
     8    3    4 1
     9    3   28 1
    10    3   29 1
    11    4    5 1
    12    4   30 1
    13    4   46 1
    14    5    6 1
    15    5   31 1
    16    5   32 1
    17    6   11 ar
    18    6    7 ar
    19    7    8 ar
    20    7   33 1
    21    8    9 ar
    22    8   34 1
    23    9   10 ar
    24    9   22 1
    25   10   11 ar
    26   10   35 1
    27   11   12 1
    28   12   17 1
    29   12   13 1
    30   13   14 1
    31   13   36 1
    32   13   37 1
    33   14   15 1
    34   14   38 1
    35   14   39 1
    36   15   16 1
    37   15   40 1
    38   15   41 1
    39   16   17 1
    40   16   42 1
    41   16   43 1
    42   17   18 1
    43   17   19 1
    44   19   20 2
    45   19   21 am
    46   21   44 1
    47   21   45 1
@<TRIPOS>MOLECULE
ZINC55913868
   58    62     0     0     0
SMALL
USER_CHARGES

@<TRIPOS>ATOM
      1 C1         -0.3836    1.2153   -0.6065 C.3       1 <0>        -0.1258
      2 C2          1.0105    1.8050   -0.4020 C.3       1 <0>        -0.1268
      3 C3          1.9088    1.4734   -1.5872 C.3       1 <0>        -0.0728
      4 C4          2.6273    0.1488   -1.3460 C.2       1 <0>        -0.0919
      5 C5          2.1167   -0.8118   -0.5499 C.2       1 <0>        -0.1178
      6 S1          3.2942   -2.1383   -0.6052 S.3       1 <0>         0.1548
      7 C6          4.4831   -1.3957   -1.6909 C.ar      1 <0>         0.1208
      8 C7          3.9194   -0.1381   -1.9794 C.ar      1 <0>        -0.2027
      9 C8          4.6813    0.6889   -2.8504 C.ar      1 <0>         0.4954
     10 N1          5.8342    0.2387   -3.3192 N.ar      1 <0>        -0.5714
     11 C9          6.3031   -0.9555   -3.0051 C.ar      1 <0>         0.3053
     12 N2          5.6409   -1.7663   -2.2023 N.ar      1 <0>        -0.4880
     13 C10         7.6241   -1.4019   -3.5768 C.3       1 <0>         0.0817
     14 N3          8.7096   -1.0022   -2.6713 N.4       1 <0>        -0.3824
     15 C11         8.5682   -1.7149   -1.3959 C.3       1 <0>        -0.0086
     16 C12         9.6486   -1.2422   -0.4207 C.3       1 <0>        -0.1252
     17 C13        11.0290   -1.5303   -1.0179 C.3       1 <0>        -0.1211
     18 C14        11.1377   -0.8430   -2.3821 C.3       1 <0>        -0.1392
     19 C15        10.0022   -1.3304   -3.2846 C.3       1 <0>        -0.0021
     20 C16        12.0972   -0.9970   -0.0984 C.2       1 <0>         0.5201
     21 O1         11.7866   -0.4408    0.9337 O.2       1 <0>        -0.5235
     22 N4         13.3977   -1.1380   -0.4229 N.am      1 <0>        -0.6963
     23 C17        14.4361   -0.6196    0.4710 C.3       1 <0>         0.0689
     24 C18        15.6063    0.1320   -0.1666 C.3       1 <0>        -0.1882
     25 C19        15.8181   -1.2725    0.4021 C.3       1 <0>        -0.1841
     26 N5          4.2236    1.9458   -3.2028 N.pl3     1 <0>        -0.8292
     27 C20         0.8403   -0.7730    0.2318 C.3       1 <0>        -0.0518
     28 C21        -0.3005   -0.3060   -0.6818 C.3       1 <0>        -0.1155
     29 H1         -1.0236    1.5018    0.2281 H         1 <0>         0.0718
     30 H2         -0.8070    1.6008   -1.5339 H         1 <0>         0.0687
     31 H3          0.9326    2.8875   -0.3007 H         1 <0>         0.0738
     32 H4          1.4467    1.3917    0.5075 H         1 <0>         0.0749
     33 H5          1.3027    1.3967   -2.4898 H         1 <0>         0.0847
     34 H6          2.6458    2.2662   -1.7152 H         1 <0>         0.0793
     35 H7          7.6242   -2.4862   -3.6877 H         1 <0>         0.1564
     36 H8          7.7740   -0.9369   -4.5512 H         1 <0>         0.1573
     37 H9          7.5841   -1.5114   -0.9737 H         1 <0>         0.1327
     38 H10         8.6756   -2.7863   -1.5650 H         1 <0>         0.1375
     39 H11         9.5420   -0.1709   -0.2507 H         1 <0>         0.0950
     40 H12         9.5430   -1.7738    0.5250 H         1 <0>         0.1208
     41 H13        11.1558   -2.6060   -1.1406 H         1 <0>         0.1193
     42 H14        11.0620    0.2366   -2.2528 H         1 <0>         0.0964
     43 H15        12.0965   -1.0892   -2.8384 H         1 <0>         0.1186
     44 H16        10.0790   -2.4100   -3.4135 H         1 <0>         0.1371
     45 H17        10.0767   -0.8432   -4.2568 H         1 <0>         0.1399
     46 H18        13.6461   -1.5829   -1.2483 H         1 <0>         0.4023
     47 H19        14.0892   -0.2774    1.4460 H         1 <0>         0.1406
     48 H20        15.6036    0.2407   -1.2511 H         1 <0>         0.0981
     49 H21        16.0295    0.9690    0.3889 H         1 <0>         0.1069
     50 H22        16.3805   -1.3595    1.3317 H         1 <0>         0.1088
     51 H23        15.9546   -2.0878   -0.3083 H         1 <0>         0.0997
     52 H24         4.8544    2.6397   -3.4507 H         1 <0>         0.4135
     53 H25         3.2719    2.1332   -3.2020 H         1 <0>         0.4214
     54 H26         0.6167   -1.7694    0.6128 H         1 <0>         0.0852
     55 H27         0.9456   -0.0793    1.0660 H         1 <0>         0.1026
     56 H28        -1.2415   -0.7423   -0.3465 H         1 <0>         0.0801
     57 H29        -0.0981   -0.6124   -1.7080 H         1 <0>         0.0681
     58 H30         8.6596   -0.0081   -2.5061 H         1 <0>         0.4258
@<TRIPOS>BOND
     1    1   28 1
     2    1    2 1
     3    1   29 1
     4    1   30 1
     5    2    3 1
     6    2   31 1
     7    2   32 1
     8    3    4 1
     9    3   33 1
    10    3   34 1
    11    4    8 1
    12    4    5 2
    13    5    6 1
    14    5   27 1
    15    6    7 1
    16    7   12 ar
    17    7    8 ar
    18    8    9 ar
    19    9   10 ar
    20    9   26 1
    21   10   11 ar
    22   11   12 ar
    23   11   13 1
    24   13   14 1
    25   13   35 1
    26   13   36 1
    27   14   19 1
    28   14   15 1
    29   14   58 1
    30   15   16 1
    31   15   37 1
    32   15   38 1
    33   16   17 1
    34   16   39 1
    35   16   40 1
    36   17   18 1
    37   17   20 1
    38   17   41 1
    39   18   19 1
    40   18   42 1
    41   18   43 1
    42   19   44 1
    43   19   45 1
    44   20   21 2
    45   20   22 am
    46   22   23 1
    47   22   46 1
    48   23   25 1
    49   23   24 1
    50   23   47 1
    51   24   25 1
    52   24   48 1
    53   24   49 1
    54   25   50 1
    55   25   51 1
    56   26   52 1
    57   26   53 1
    58   27   28 1
    59   27   54 1
    60   27   55 1
    61   28   56 1
    62   28   57 1
@<TRIPOS>MOLECULE
ZINC63195532
   43    44     0     0     0
SMALL
USER_CHARGES

@<TRIPOS>ATOM
      1 C1         -0.2320   -0.9961    1.6057 C.3       1 <0>        -0.1791
      2 C2          0.8955   -0.1893    0.9589 C.3       1 <0>         0.0214
      3 H1          0.9147   -0.3864   -0.1130 H         1 <0>         0.1414
      4 C3          2.2343   -0.5978    1.5766 C.3       1 <0>         0.0652
      5 H2          3.0439   -0.0750    1.0674 H         1 <0>         0.0692
      6 C4          2.2441   -0.2294    3.0619 C.3       1 <0>        -0.1307
      7 C5          3.5776   -0.6581    3.6804 C.3       1 <0>        -0.1214
      8 C6          3.7681   -2.1629    3.4708 C.3       1 <0>        -0.1194
      9 C7          3.7141   -2.4753    1.9736 C.3       1 <0>         0.0551
     10 N1          2.4191   -2.0472    1.4295 N.3       1 <0>        -0.5011
     11 C8          2.2768   -2.4562    0.0258 C.3       1 <0>         0.0253
     12 C9          2.0808   -3.9488   -0.0451 C.2       1 <0>         0.5071
     13 O1          2.0614   -4.6069    0.9735 O.2       1 <0>        -0.4726
     14 N2          1.9269   -4.5522   -1.2404 N.am      1 <0>        -0.6758
     15 C10         1.8663   -5.9491   -1.3168 C.ar      1 <0>         0.1508
     16 C11         0.9693   -6.6517   -0.5219 C.ar      1 <0>        -0.0184
     17 C12         0.9122   -8.0306   -0.5999 C.ar      1 <0>        -0.0940
     18 C13         1.7468   -8.7108   -1.4675 C.ar      1 <0>        -0.0935
     19 C14         2.6408   -8.0148   -2.2602 C.ar      1 <0>        -0.0923
     20 C15         2.6991   -6.6353   -2.1919 C.ar      1 <0>        -0.0410
     21 Cl1         3.8165   -5.7620   -3.1931 Cl        1 <0>        -0.0491
     22 Cl2        -0.0783   -5.7989    0.5686 Cl        1 <0>        -0.0352
     23 N3          0.6669    1.2434    1.1892 N.4       1 <0>        -0.6355
     24 H3         -0.2512   -0.7990    2.6776 H         1 <0>         0.0861
     25 H4         -1.1858   -0.7051    1.1656 H         1 <0>         0.0788
     26 H5         -0.0624   -2.0592    1.4348 H         1 <0>         0.1168
     27 H6          2.1226    0.8484    3.1703 H         1 <0>         0.0633
     28 H7          1.4264   -0.7413    3.5693 H         1 <0>         0.0930
     29 H8          4.3928   -0.1174    3.1995 H         1 <0>         0.0654
     30 H9          3.5721   -0.4369    4.7477 H         1 <0>         0.0782
     31 H10         4.7353   -2.4666    3.8712 H         1 <0>         0.0784
     32 H11         2.9743   -2.7052    3.9845 H         1 <0>         0.0799
     33 H12         4.5166   -1.9436    1.4625 H         1 <0>         0.0400
     34 H13         3.8351   -3.5479    1.8218 H         1 <0>         0.0996
     35 H14         1.4140   -1.9552   -0.4130 H         1 <0>         0.1032
     36 H15         3.1759   -2.1813   -0.5256 H         1 <0>         0.0790
     37 H16         1.8582   -4.0188   -2.0477 H         1 <0>         0.4124
     38 H17         0.2151   -8.5774    0.0177 H         1 <0>         0.1463
     39 H18         1.7006   -9.7882   -1.5260 H         1 <0>         0.1488
     40 H19         3.2915   -8.5493   -2.9365 H         1 <0>         0.1476
     41 H20         1.3706    1.7788    0.7031 H         1 <0>         0.4352
     42 H21        -0.2468    1.4978    0.8448 H         1 <0>         0.4391
     43 H22         0.7198    1.4378    2.1779 H         1 <0>         0.4326
@<TRIPOS>BOND
     1    1    2 1
     2    1   24 1
     3    1   25 1
     4    1   26 1
     5    2    3 1
     6    2    4 1
     7    2   23 1
     8    4    5 1
     9    4   10 1
    10    4    6 1
    11    6    7 1
    12    6   27 1
    13    6   28 1
    14    7    8 1
    15    7   29 1
    16    7   30 1
    17    8    9 1
    18    8   31 1
    19    8   32 1
    20    9   10 1
    21    9   33 1
    22    9   34 1
    23   10   11 1
    24   11   12 1
    25   11   35 1
    26   11   36 1
    27   12   13 2
    28   12   14 am
    29   14   15 1
    30   14   37 1
    31   15   20 ar
    32   15   16 ar
    33   16   17 ar
    34   16   22 1
    35   17   18 ar
    36   17   38 1
    37   18   19 ar
    38   18   39 1
    39   19   20 ar
    40   19   40 1
    41   20   21 1
    42   23   41 1
    43   23   42 1
    44   23   43 1
@<TRIPOS>MOLECULE
ZINC67409153
   59    60     0     0     0
SMALL
USER_CHARGES

@<TRIPOS>ATOM
      1 C1         -0.0187    1.5258    0.0104 C.3       1 <0>        -0.1520
      2 C2          0.0021   -0.0041    0.0020 C.3       1 <0>        -0.1103
      3 H1         -1.0203   -0.3820    0.0097 H         1 <0>         0.0920
      4 C3          0.7207   -0.4988   -1.2566 C.3       1 <0>        -0.1353
      5 C4          0.8050   -2.0274   -1.2167 C.3       1 <0>        -0.1443
      6 C5          1.5180   -2.4602    0.0661 C.3       1 <0>        -0.0141
      7 N1          0.7684   -1.9794    1.2329 N.4       1 <0>        -0.3833
      8 C6          0.7439   -0.5118    1.2403 C.3       1 <0>        -0.0077
      9 C7          1.4135   -2.4631    2.4608 C.3       1 <0>        -0.0205
     10 C8          1.3197   -3.9891    2.5192 C.3       1 <0>         0.1384
     11 H2          1.8969   -4.4201    1.7012 H         1 <0>         0.1185
     12 C9          1.8795   -4.4837    3.8545 C.3       1 <0>        -0.1697
     13 N2         -0.0818   -4.3973    2.3960 N.am      1 <0>        -0.7628
     14 C10        -0.3881   -5.6217    1.9233 C.2       1 <0>         0.7144
     15 O1          0.4989   -6.3875    1.5991 O.2       1 <0>        -0.5512
     16 N3         -1.6775   -5.9972    1.8100 N.am      1 <0>        -0.5241
     17 N4         -2.6995   -5.1147    2.1836 N.am      1 <0>        -0.5427
     18 C11        -3.9890   -5.4903    2.0703 C.2       1 <0>         0.5151
     19 O2         -4.2645   -6.5921    1.6449 O.2       1 <0>        -0.5067
     20 C12        -5.0883   -4.5410    2.4721 C.3       1 <0>        -0.1259
     21 C13        -6.4463   -5.2085    2.2460 C.3       1 <0>        -0.0738
     22 C14        -6.6509   -5.4545    0.7498 C.3       1 <0>        -0.1193
     23 C15        -8.0089   -6.1219    0.5237 C.3       1 <0>        -0.1198
     24 C16        -9.1194   -5.2087    1.0468 C.3       1 <0>        -0.1224
     25 C17        -8.9149   -4.9626    2.5430 C.3       1 <0>        -0.1212
     26 C18        -7.5568   -4.2952    2.7691 C.3       1 <0>        -0.1136
     27 H3          1.0039    1.9031    0.0027 H         1 <0>         0.0683
     28 H4         -0.5459    1.8868   -0.8726 H         1 <0>         0.0784
     29 H5         -0.5289    1.8773    0.9072 H         1 <0>         0.0687
     30 H6          0.1639   -0.1874   -2.1404 H         1 <0>         0.0953
     31 H7          1.7260   -0.0791   -1.2911 H         1 <0>         0.0841
     32 H8         -0.2005   -2.4480   -1.2339 H         1 <0>         0.0852
     33 H9          1.3641   -2.3838   -2.0819 H         1 <0>         0.1146
     34 H10         1.5800   -3.5480    0.0976 H         1 <0>         0.1315
     35 H11         2.5234   -2.0393    0.0822 H         1 <0>         0.1332
     36 H12         1.7658   -0.1325    1.2321 H         1 <0>         0.1325
     37 H13         0.2343   -0.1612    2.1378 H         1 <0>         0.1314
     38 H14         2.4615   -2.1631    2.4631 H         1 <0>         0.1514
     39 H15         0.9112   -2.0347    3.3282 H         1 <0>         0.1393
     40 H16         1.3023   -4.0527    4.6725 H         1 <0>         0.0703
     41 H17         1.8127   -5.5709    3.8960 H         1 <0>         0.0854
     42 H18         2.9223   -4.1800    3.9461 H         1 <0>         0.0824
     43 H19        -0.7894   -3.7863    2.6547 H         1 <0>         0.3893
     44 H20        -1.8979   -6.8784    1.4698 H         1 <0>         0.4512
     45 H21        -2.4791   -4.2335    2.5238 H         1 <0>         0.4125
     46 H22        -4.9802   -4.2852    3.5262 H         1 <0>         0.1024
     47 H23        -5.0240   -3.6348    1.8699 H         1 <0>         0.0998
     48 H24        -6.4770   -6.1593    2.7781 H         1 <0>         0.0828
     49 H25        -6.6202   -4.5037    0.2177 H         1 <0>         0.0553
     50 H26        -5.8597   -6.1051    0.3771 H         1 <0>         0.0772
     51 H27        -8.1546   -6.2972   -0.5422 H         1 <0>         0.0620
     52 H28        -8.0396   -7.0727    1.0558 H         1 <0>         0.0634
     53 H29        -9.0888   -4.2579    0.5147 H         1 <0>         0.0606
     54 H30       -10.0869   -5.6842    0.8857 H         1 <0>         0.0632
     55 H31        -9.7060   -4.3120    2.9157 H         1 <0>         0.0649
     56 H32        -8.9456   -5.9134    3.0751 H         1 <0>         0.0638
     57 H33        -7.4111   -4.1199    3.8350 H         1 <0>         0.0635
     58 H34        -7.5262   -3.3444    2.2370 H         1 <0>         0.0633
     59 H35        -0.1770   -2.3297    1.1917 H         1 <0>         0.4152
@<TRIPOS>BOND
     1    1    2 1
     2    1   27 1
     3    1   28 1
     4    1   29 1
     5    2    3 1
     6    2    8 1
     7    2    4 1
     8    4    5 1
     9    4   30 1
    10    4   31 1
    11    5    6 1
    12    5   32 1
    13    5   33 1
    14    6    7 1
    15    6   34 1
    16    6   35 1
    17    7    8 1
    18    7    9 1
    19    7   59 1
    20    8   36 1
    21    8   37 1
    22    9   10 1
    23    9   38 1
    24    9   39 1
    25   10   11 1
    26   10   12 1
    27   10   13 1
    28   12   40 1
    29   12   41 1
    30   12   42 1
    31   13   14 am
    32   13   43 1
    33   14   15 2
    34   14   16 am
    35   16   17 1
    36   16   44 1
    37   17   18 am
    38   17   45 1
    39   18   19 2
    40   18   20 1
    41   20   21 1
    42   20   46 1
    43   20   47 1
    44   21   26 1
    45   21   22 1
    46   21   48 1
    47   22   23 1
    48   22   49 1
    49   22   50 1
    50   23   24 1
    51   23   51 1
    52   23   52 1
    53   24   25 1
    54   24   53 1
    55   24   54 1
    56   25   26 1
    57   25   55 1
    58   25   56 1
    59   26   57 1
    60   26   58 1
@<TRIPOS>MOLECULE
ZINC36257844
   38    40     0     0     0
SMALL
USER_CHARGES

@<TRIPOS>ATOM
      1 C1         -0.0166    1.3745    0.0096 C.2       1 <0>        -0.1153
      2 C2          1.3142    1.8035   -0.0008 C.2       1 <0>        -0.1851
      3 C3          2.1052    0.7039   -0.0143 C.2       1 <0>         0.0374
      4 N1          1.3201   -0.4008   -0.0127 N.2       1 <0>        -0.5016
      5 C4          0.0021   -0.0041    0.0020 C.2       1 <0>        -0.1162
      6 C5         -1.1691   -0.8871    0.0089 C.2       1 <0>         0.6191
      7 O1         -2.2894   -0.4118    0.0225 O.2       1 <0>        -0.5600
      8 N2         -1.0046   -2.2247    0.0001 N.am      1 <0>        -0.7284
      9 C6         -2.1744   -3.1066    0.0069 C.3       1 <0>         0.1409
     10 H1         -2.9663   -2.6575    0.6064 H         1 <0>         0.0999
     11 C7         -2.6707   -3.3106   -1.4272 C.3       1 <0>        -0.1629
     12 C8         -3.8683   -4.2623   -1.4219 C.3       1 <0>        -0.0011
     13 N3         -3.4580   -5.5699   -0.8933 N.4       1 <0>        -0.4841
     14 C9         -2.9781   -5.4171    0.4824 C.3       1 <0>         0.0199
     15 C10        -1.7887   -4.4654    0.6021 C.3       1 <0>        -0.1289
     16 C11        -4.0957   -5.1220    1.4918 C.3       1 <0>        -0.1339
     17 C12        -4.2354   -6.6449    1.6593 C.3       1 <0>        -0.1567
     18 C13        -2.7677   -6.7511    1.2106 C.3       1 <0>        -0.1310
     19 N4          1.7766    3.2095    0.0019 N.pl3     1 <0>         0.0831
     20 O2          0.9709    4.1108    0.0140 O.2       1 <0>        -0.2220
     21 O3          2.9600    3.4567   -0.0080 O.3       1 <0>        -0.2188
     22 H2         -0.8938    2.0043    0.0253 H         1 <0>         0.1244
     23 H3          3.1851    0.7071   -0.0249 H         1 <0>         0.1518
     24 H4         -0.1117   -2.6035   -0.0108 H         1 <0>         0.4122
     25 H5         -2.9711   -2.3509   -1.8476 H         1 <0>         0.1186
     26 H6         -1.8701   -3.7373   -2.0314 H         1 <0>         0.0894
     27 H7         -4.6576   -3.8487   -0.7942 H         1 <0>         0.1319
     28 H8         -4.2403   -4.3828   -2.4394 H         1 <0>         0.1361
     29 H9         -4.2463   -6.1996   -0.9059 H         1 <0>         0.4260
     30 H10        -0.9392   -4.8749    0.0556 H         1 <0>         0.0941
     31 H11        -1.5232   -4.3415    1.6520 H         1 <0>         0.1167
     32 H12        -3.7490   -4.6135    2.3914 H         1 <0>         0.1244
     33 H13        -4.9717   -4.6491    1.0478 H         1 <0>         0.0908
     34 H14        -4.4003   -6.9573    2.6904 H         1 <0>         0.0975
     35 H15        -4.9391   -7.0981    0.9610 H         1 <0>         0.0889
     36 H16        -2.5752   -7.5890    0.5405 H         1 <0>         0.0906
     37 H17        -2.0542   -6.6924    2.0326 H         1 <0>         0.1241
     38 H18        -2.7185   -5.9470   -1.4669 H         1 <0>         0.4282
@<TRIPOS>BOND
     1    1    5 2
     2    1    2 1
     3    1   22 1
     4    2    3 2
     5    2   19 1
     6    3    4 1
     7    3   23 1
     8    4    5 1
     9    5    6 1
    10    6    7 2
    11    6    8 am
    12    8    9 1
    13    8   24 1
    14    9   10 1
    15    9   15 1
    16    9   11 1
    17   11   12 1
    18   11   25 1
    19   11   26 1
    20   12   13 1
    21   12   27 1
    22   12   28 1
    23   13   14 1
    24   13   29 1
    25   13   38 1
    26   14   18 1
    27   14   15 1
    28   14   16 1
    29   15   30 1
    30   15   31 1
    31   16   17 1
    32   16   32 1
    33   16   33 1
    34   17   18 1
    35   17   34 1
    36   17   35 1
    37   18   36 1
    38   18   37 1
    39   19   20 2
    40   19   21 1
@<TRIPOS>MOLECULE
ZINC47288569
   35    36     0     0     0
SMALL
USER_CHARGES

@<TRIPOS>ATOM
      1 C1          0.0744    1.5283   -0.2324 C.3       1 <0>        -0.1495
      2 C2          0.0727   -0.0008   -0.1789 C.3       1 <0>        -0.1392
      3 C3          0.7623   -0.5556   -1.4270 C.3       1 <0>         0.0898
      4 N1          0.7607   -2.0197   -1.3757 N.am      1 <0>        -0.4887
      5 C4          1.7952   -2.6721   -0.7821 C.2       1 <0>         0.1300
      6 C5          1.8141   -4.0298   -0.7233 C.2       1 <0>         0.0287
      7 C6          0.7551   -4.7689   -1.2803 C.2       1 <0>        -0.0044
      8 C7         -0.2790   -4.1074   -1.8736 C.2       1 <0>        -0.2278
      9 C8         -0.2679   -2.7029   -1.9121 C.2       1 <0>         0.5123
     10 O1         -1.1911   -2.1007   -2.4373 O.2       1 <0>        -0.5440
     11 N2          2.8875   -4.6922   -0.1089 N.am      1 <0>        -0.6469
     12 C9          2.6629   -5.5167    0.9333 C.2       1 <0>         0.5966
     13 O2          1.5237   -5.7562    1.2846 O.2       1 <0>        -0.5291
     14 C10         3.8006   -6.1294    1.6488 C.ar      1 <0>        -0.0633
     15 C11         3.5710   -7.0829    2.6546 C.ar      1 <0>         0.4178
     16 N3          4.6013   -7.6276    3.2911 N.ar      1 <0>        -0.5090
     17 C12         5.8339   -7.2722    2.9771 C.ar      1 <0>         0.1481
     18 C13         6.0601   -6.3305    1.9836 C.ar      1 <0>        -0.0228
     19 N4          5.0476   -5.7853    1.3402 N.ar      1 <0>        -0.3709
     20 N5          2.2788   -7.4519    2.9806 N.pl3     1 <0>        -0.8133
     21 H1          1.1021    1.8894   -0.2705 H         1 <0>         0.0579
     22 H2         -0.4609    1.8613   -1.1216 H         1 <0>         0.0605
     23 H3         -0.4169    1.9235    0.6567 H         1 <0>         0.0625
     24 H4          0.6080   -0.3338    0.7103 H         1 <0>         0.0667
     25 H5         -0.9550   -0.3619   -0.1408 H         1 <0>         0.0729
     26 H6          0.2270   -0.2226   -2.3162 H         1 <0>         0.1044
     27 H7          1.7900   -0.1944   -1.4651 H         1 <0>         0.0930
     28 H8          2.6094   -2.1064   -0.3537 H         1 <0>         0.1657
     29 H9          0.7612   -5.8481   -1.2389 H         1 <0>         0.1375
     30 H10        -1.1009   -4.6579   -2.3071 H         1 <0>         0.1552
     31 H11         3.7912   -4.5569   -0.4343 H         1 <0>         0.4211
     32 H12         6.6700   -7.7165    3.4965 H         1 <0>         0.1786
     33 H13         7.0714   -6.0456    1.7337 H         1 <0>         0.1767
     34 H14         1.5265   -6.9954    2.5725 H         1 <0>         0.4282
     35 H15         2.1247   -8.1672    3.6173 H         1 <0>         0.4047
@<TRIPOS>BOND
     1    1    2 1
     2    1   21 1
     3    1   22 1
     4    1   23 1
     5    2    3 1
     6    2   24 1
     7    2   25 1
     8    3    4 1
     9    3   26 1
    10    3   27 1
    11    4    9 am
    12    4    5 1
    13    5    6 2
    14    5   28 1
    15    6    7 1
    16    6   11 1
    17    7    8 2
    18    7   29 1
    19    8    9 1
    20    8   30 1
    21    9   10 2
    22   11   12 am
    23   11   31 1
    24   12   13 2
    25   12   14 1
    26   14   19 ar
    27   14   15 ar
    28   15   16 ar
    29   15   20 1
    30   16   17 ar
    31   17   18 ar
    32   17   32 1
    33   18   19 ar
    34   18   33 1
    35   20   34 1
    36   20   35 1
@<TRIPOS>MOLECULE
ZINC50321228
   40    41     0     0     0
SMALL
USER_CHARGES

@<TRIPOS>ATOM
      1 C1         -0.8596    2.4995   -0.7329 C.3       1 <0>        -0.1482
      2 C2         -0.5513    1.0037   -0.6412 C.3       1 <0>        -0.0120
      3 C3          0.3571    0.7431    0.5621 C.3       1 <0>        -0.1484
      4 C4         -1.8370    0.2351   -0.4758 C.2       1 <0>        -0.0702
      5 C5         -2.3190   -0.7228   -1.3115 C.2       1 <0>         0.1614
      6 C6         -3.5448   -1.1445   -0.7349 C.2       1 <0>        -0.0630
      7 N1         -3.7162   -0.4410    0.3683 N.2       1 <0>        -0.2349
      8 N2         -2.7304    0.3643    0.5398 N.pl3     1 <0>        -0.3659
      9 H1         -2.6381    0.9778    1.2855 H         1 <0>         0.4449
     10 C7         -4.4559   -2.1740   -1.2684 C.2       1 <0>         0.6098
     11 O1         -4.2283   -2.6875   -2.3468 O.2       1 <0>        -0.5407
     12 N3         -5.5409   -2.5457   -0.5605 N.am      1 <0>        -0.6004
     13 C8         -5.8480   -1.8851    0.7105 C.3       1 <0>         0.0769
     14 C9         -6.4132   -3.6105   -1.0622 C.3       1 <0>         0.1942
     15 C10        -5.9312   -4.9408   -0.5437 C.2       1 <0>        -0.2584
     16 C11        -5.0008   -5.7788   -1.1671 C.2       1 <0>         0.0709
     17 N4         -4.8384   -6.8386   -0.4172 N.2       1 <0>        -0.2996
     18 N5         -5.6616   -6.7083    0.7088 N.pl3     1 <0>        -0.3773
     19 C12        -6.3175   -5.5330    0.6100 C.2       1 <0>         0.0678
     20 C13        -5.7843   -7.6744    1.8032 C.3       1 <0>         0.1006
     21 N6         -1.7293   -1.1943   -2.4934 N.pl3     1 <0>        -0.8540
     22 H2          0.0703    3.0555   -0.8525 H         1 <0>         0.0638
     23 H3         -1.5068    2.6852   -1.5901 H         1 <0>         0.0596
     24 H4         -1.3620    2.8235    0.1786 H         1 <0>         0.0522
     25 H5         -0.0490    0.6797   -1.5526 H         1 <0>         0.0878
     26 H6          0.5767   -0.3226    0.6274 H         1 <0>         0.0591
     27 H7          1.2870    1.2990    0.4424 H         1 <0>         0.0640
     28 H8         -0.1452    1.0671    1.4735 H         1 <0>         0.0521
     29 H9         -6.3977   -0.9638    0.5176 H         1 <0>         0.0563
     30 H10        -6.4549   -2.5480    1.3272 H         1 <0>         0.0629
     31 H11        -4.9199   -1.6520    1.2323 H         1 <0>         0.0942
     32 H12        -7.4334   -3.4355   -0.7206 H         1 <0>         0.0840
     33 H13        -6.3907   -3.6154   -2.1519 H         1 <0>         0.0945
     34 H14        -4.5025   -5.5846   -2.1054 H         1 <0>         0.1843
     35 H15        -7.0258   -5.1373    1.3228 H         1 <0>         0.1721
     36 H16        -5.0530   -7.4415    2.5772 H         1 <0>         0.0742
     37 H17        -6.7883   -7.6211    2.2241 H         1 <0>         0.0874
     38 H18        -5.6028   -8.6796    1.4225 H         1 <0>         0.0897
     39 H19        -0.8821   -0.8285   -2.7922 H         1 <0>         0.3959
     40 H20        -2.1687   -1.8863   -3.0121 H         1 <0>         0.4126
@<TRIPOS>BOND
     1    1    2 1
     2    1   22 1
     3    1   23 1
     4    1   24 1
     5    2    3 1
     6    2    4 1
     7    2   25 1
     8    3   26 1
     9    3   27 1
    10    3   28 1
    11    4    8 1
    12    4    5 2
    13    5    6 1
    14    5   21 1
    15    6    7 2
    16    6   10 1
    17    7    8 1
    18    8    9 1
    19   10   11 2
    20   10   12 am
    21   12   13 1
    22   12   14 1
    23   13   29 1
    24   13   30 1
    25   13   31 1
    26   14   15 1
    27   14   32 1
    28   14   33 1
    29   15   19 2
    30   15   16 1
    31   16   17 2
    32   16   34 1
    33   17   18 1
    34   18   19 1
    35   18   20 1
    36   19   35 1
    37   20   36 1
    38   20   37 1
    39   20   38 1
    40   21   39 1
    41   21   40 1
@<TRIPOS>MOLECULE
ZINC52840907
   34    34     0     0     0
SMALL
USER_CHARGES

@<TRIPOS>ATOM
      1 C1         -0.0145    1.5009    0.0414 C.3       1 <0>        -0.1669
      2 C2          0.0003   -0.0287    0.0096 C.3       1 <0>         0.1291
      3 H1          0.5990   -0.4036    0.8397 H         1 <0>         0.1076
      4 C3          0.5966   -0.4984   -1.2922 C.2       1 <0>         0.5117
      5 O1         -0.1271   -0.7839   -2.2226 O.2       1 <0>        -0.5324
      6 N1          1.9341   -0.6011   -1.4226 N.am      1 <0>        -0.6150
      7 C4          2.5184   -0.9613   -2.7168 C.3       1 <0>         0.0815
      8 C5          2.8036   -0.3527   -0.2700 C.3       1 <0>         0.0660
      9 N2         -1.3701   -0.5328    0.1291 N.pl3     1 <0>        -0.7209
     10 C6         -1.9473   -0.6984    1.3940 C.ar      1 <0>         0.2050
     11 C7         -1.2258   -0.3804    2.5346 C.ar      1 <0>        -0.1659
     12 C8         -1.7980   -0.5443    3.7826 C.ar      1 <0>        -0.0509
     13 C9         -3.0891   -1.0253    3.8979 C.ar      1 <0>        -0.0580
     14 C10        -3.8156   -1.3453    2.7658 C.ar      1 <0>        -0.1003
     15 C11        -3.2518   -1.1782    1.5100 C.ar      1 <0>         0.1596
     16 N3         -3.9878   -1.4958    0.3621 N.pl3     1 <0>        -0.8734
     17 N4         -3.6951   -1.1986    5.2370 N.pl3     1 <0>         0.0429
     18 O2         -3.0613   -0.9197    6.2281 O.2       1 <0>        -0.1694
     19 O3         -4.8239   -1.6191    5.3399 O.3       1 <0>        -0.1719
     20 H2          1.0096    1.8742    0.0418 H         1 <0>         0.0752
     21 H3         -0.5381    1.8775   -0.8373 H         1 <0>         0.0694
     22 H4         -0.5254    1.8407    0.9423 H         1 <0>         0.0789
     23 H5          2.7150   -0.0560   -3.2912 H         1 <0>         0.0598
     24 H6          3.4524   -1.4999   -2.5565 H         1 <0>         0.0749
     25 H7          1.8226   -1.5959   -3.2656 H         1 <0>         0.0796
     26 H8          2.2023   -0.0079    0.5712 H         1 <0>         0.0810
     27 H9          3.3164   -1.2748    0.0038 H         1 <0>         0.0687
     28 H10         3.5392    0.4094   -0.5274 H         1 <0>         0.0727
     29 H11        -1.8775   -0.7519   -0.6680 H         1 <0>         0.4093
     30 H12        -0.2168   -0.0051    2.4482 H         1 <0>         0.1440
     31 H13        -1.2347   -0.2961    4.6700 H         1 <0>         0.1511
     32 H14        -4.8236   -1.7214    2.8595 H         1 <0>         0.1513
     33 H15        -3.5907   -1.3822   -0.5156 H         1 <0>         0.3990
     34 H16        -4.8950   -1.8293    0.4444 H         1 <0>         0.4068
@<TRIPOS>BOND
     1    1    2 1
     2    1   20 1
     3    1   21 1
     4    1   22 1
     5    2    3 1
     6    2    4 1
     7    2    9 1
     8    4    5 2
     9    4    6 am
    10    6    7 1
    11    6    8 1
    12    7   23 1
    13    7   24 1
    14    7   25 1
    15    8   26 1
    16    8   27 1
    17    8   28 1
    18    9   10 1
    19    9   29 1
    20   10   15 ar
    21   10   11 ar
    22   11   12 ar
    23   11   30 1
    24   12   13 ar
    25   12   31 1
    26   13   14 ar
    27   13   17 1
    28   14   15 ar
    29   14   32 1
    30   15   16 1
    31   16   33 1
    32   16   34 1
    33   17   18 2
    34   17   19 1
@<TRIPOS>MOLECULE
ZINC20738453
   35    37     0     0     0
SMALL
USER_CHARGES

@<TRIPOS>ATOM
      1 C1         -0.0167    1.3784    0.0096 C.ar      1 <0>        -0.0685
      2 C2          1.1695    2.0865    0.0021 C.ar      1 <0>        -0.1439
      3 C3          2.3802    1.4093   -0.0131 C.ar      1 <0>         0.1284
      4 C4          2.3963    0.0221   -0.0206 C.ar      1 <0>        -0.2055
      5 C5          1.2074   -0.6814   -0.0130 C.ar      1 <0>        -0.0687
      6 C6          0.0021   -0.0041    0.0020 C.ar      1 <0>        -0.1172
      7 C7         -1.2934   -0.7740    0.0107 C.3       1 <0>         0.0417
      8 H1         -2.1334   -0.0795    0.0227 H         1 <0>         0.1057
      9 C8         -1.3503   -1.6744    1.2478 C.3       1 <0>        -0.1322
     10 C9         -0.4683   -2.8789    1.1041 C.2       1 <0>         0.5355
     11 O1          0.1339   -3.2767    2.0789 O.2       1 <0>        -0.5184
     12 N1         -0.3160   -3.5397   -0.0632 N.am      1 <0>        -0.6364
     13 C10        -0.8942   -2.9800   -1.2132 C.2       1 <0>         0.3085
     14 C11        -1.3736   -1.6474   -1.2154 C.2       1 <0>        -0.2606
     15 C12        -1.8617   -1.3837   -2.4349 C.2       1 <0>         0.1061
     16 N2         -1.7084   -2.4976   -3.1890 N.pl3     1 <0>        -0.4760
     17 H2         -1.9732   -2.5978   -4.1167 H         1 <0>         0.4476
     18 N3         -1.0983   -3.4843   -2.3928 N.2       1 <0>        -0.2966
     19 O2          3.5484    2.1036   -0.0209 O.3       1 <0>        -0.2895
     20 C13         4.7565    1.3405   -0.0365 C.3       1 <0>         0.0388
     21 C14         5.9399    2.2736   -0.0433 C.2       1 <0>         0.5197
     22 O3          5.7659    3.4738   -0.0356 O.2       1 <0>        -0.5167
     23 N4          7.1917    1.7742   -0.0580 N.am      1 <0>        -0.8501
     24 H3         -0.9594    1.9052    0.0259 H         1 <0>         0.1345
     25 H4          1.1543    3.1664    0.0076 H         1 <0>         0.1350
     26 H5          3.3375   -0.5074   -0.0328 H         1 <0>         0.1262
     27 H6          1.2194   -1.7613   -0.0189 H         1 <0>         0.1189
     28 H7         -1.0301   -1.1019    2.1183 H         1 <0>         0.1143
     29 H8         -2.3783   -2.0035    1.4000 H         1 <0>         0.1105
     30 H9          0.1772   -4.3739   -0.1059 H         1 <0>         0.4183
     31 H10        -2.2985   -0.4504   -2.7583 H         1 <0>         0.1863
     32 H11         4.7979    0.7076    0.8500 H         1 <0>         0.0957
     33 H12         4.7806    0.7165   -0.9299 H         1 <0>         0.0945
     34 H13         7.3309    0.8143   -0.0641 H         1 <0>         0.4038
     35 H14         7.9534    2.3748   -0.0624 H         1 <0>         0.4104
@<TRIPOS>BOND
     1    1    6 ar
     2    1    2 ar
     3    1   24 1
     4    2    3 ar
     5    2   25 1
     6    3    4 ar
     7    3   19 1
     8    4    5 ar
     9    4   26 1
    10    5    6 ar
    11    5   27 1
    12    6    7 1
    13    7    8 1
    14    7   14 1
    15    7    9 1
    16    9   10 1
    17    9   28 1
    18    9   29 1
    19   10   11 2
    20   10   12 am
    21   12   13 1
    22   12   30 1
    23   13   18 2
    24   13   14 1
    25   14   15 2
    26   15   16 1
    27   15   31 1
    28   16   17 1
    29   16   18 1
    30   19   20 1
    31   20   21 1
    32   20   32 1
    33   20   33 1
    34   21   22 2
    35   21   23 am
    36   23   34 1
    37   23   35 1
@<TRIPOS>MOLECULE
ZINC12913736
   58    61     0     0     0
SMALL
USER_CHARGES
N'-[(3R)-1-benzyl-5-oxo-pyrrolidine-3-carbonyl]-4-oxo-3-propyl-phthalazine-1-carbohydrazide
@<TRIPOS>ATOM
      1 C1         -4.1358    5.3599    1.5120 C.3       1 <0>        -0.1488
      2 C2         -2.8372    4.5510    1.4952 C.3       1 <0>        -0.1394
      3 C3         -2.4181    4.2891    0.0472 C.3       1 <0>         0.1086
      4 N1         -1.1747    3.5146    0.0312 N.am      1 <0>        -0.3558
      5 C4         -1.2612    2.1685    0.0196 C.2       1 <0>         0.5161
      6 O1         -2.3450    1.6139    0.0217 O.2       1 <0>        -0.4911
      7 C5         -0.0168    1.3871    0.0097 C.ar      1 <0>        -0.1395
      8 C6          0.0021   -0.0041    0.0020 C.ar      1 <0>        -0.0522
      9 C7          1.2129   -0.6632   -0.0131 C.ar      1 <0>        -0.1133
     10 C8          2.4070    0.0458   -0.0206 C.ar      1 <0>        -0.0845
     11 C9          2.4094    1.4246   -0.0137 C.ar      1 <0>        -0.0966
     12 C10         1.1991    2.1092    0.0019 C.ar      1 <0>        -0.0320
     13 C11         1.1141    3.5785    0.0101 C.2       1 <0>         0.0564
     14 N2         -0.0650    4.1511    0.0240 N.2       1 <0>        -0.1875
     15 C12         2.3423    4.3978    0.0031 C.2       1 <0>         0.6019
     16 O2          3.4323    3.8592   -0.0093 O.2       1 <0>        -0.5199
     17 N3          2.2553    5.7427    0.0107 N.am      1 <0>        -0.5038
     18 N4          3.4208    6.5202    0.0041 N.am      1 <0>        -0.5160
     19 C13         3.3337    7.8651    0.0116 C.2       1 <0>         0.5293
     20 O3          2.2465    8.4023    0.0241 O.2       1 <0>        -0.5225
     21 C14         4.5874    8.7013    0.0046 C.3       1 <0>        -0.1128
     22 H1          5.2170    8.4497   -0.8489 H         1 <0>         0.1293
     23 C15         5.3648    8.5444    1.3320 C.3       1 <0>        -0.1480
     24 C16         5.9175    9.9261    1.6038 C.2       1 <0>         0.5222
     25 O4          6.8083   10.1761    2.3880 O.2       1 <0>        -0.5194
     26 N5          5.2777   10.8366    0.8498 N.am      1 <0>        -0.6131
     27 C17         4.2469   10.2081    0.0152 C.3       1 <0>         0.1174
     28 C18         5.5718   12.2717    0.8594 C.3       1 <0>         0.1675
     29 C19         4.7188   12.9523    1.8988 C.ar      1 <0>        -0.1159
     30 C20         3.4758   13.4500    1.5550 C.ar      1 <0>        -0.1032
     31 C21         2.6916   14.0704    2.5094 C.ar      1 <0>        -0.1232
     32 C22         3.1541   14.2012    3.8055 C.ar      1 <0>        -0.1136
     33 C23         4.3993   13.7082    4.1481 C.ar      1 <0>        -0.1226
     34 C24         5.1817   13.0839    3.1947 C.ar      1 <0>        -0.0967
     35 H2         -4.4343    5.5465    2.5436 H         1 <0>         0.0638
     36 H3         -3.9785    6.3102    1.0017 H         1 <0>         0.0609
     37 H4         -4.9196    4.7993    1.0026 H         1 <0>         0.0604
     38 H5         -2.9944    3.6008    2.0055 H         1 <0>         0.0694
     39 H6         -2.0533    5.1116    2.0046 H         1 <0>         0.0718
     40 H7         -2.2609    5.2394   -0.4631 H         1 <0>         0.1048
     41 H8         -3.2020    3.7285   -0.4621 H         1 <0>         0.1084
     42 H9         -0.9226   -0.5621    0.0075 H         1 <0>         0.1436
     43 H10         1.2330   -1.7430   -0.0194 H         1 <0>         0.1379
     44 H11         3.3450   -0.4893   -0.0324 H         1 <0>         0.1379
     45 H12         3.3428    1.9680   -0.0197 H         1 <0>         0.1705
     46 H13         1.3857    6.1724    0.0206 H         1 <0>         0.4419
     47 H14         4.2903    6.0905   -0.0059 H         1 <0>         0.4363
     48 H15         4.6928    8.2378    2.1336 H         1 <0>         0.1113
     49 H16         6.1755    7.8251    1.2165 H         1 <0>         0.1170
     50 H17         4.2843   10.6104   -0.9972 H         1 <0>         0.0910
     51 H18         3.2595   10.3687    0.4481 H         1 <0>         0.0948
     52 H19         6.6246   12.4252    1.0961 H         1 <0>         0.0944
     53 H20         5.3547   12.6937   -0.1219 H         1 <0>         0.0913
     54 H21         3.1161   13.3512    0.5415 H         1 <0>         0.1215
     55 H22         1.7186   14.4554    2.2418 H         1 <0>         0.1230
     56 H23         2.5425   14.6883    4.5505 H         1 <0>         0.1221
     57 H24         4.7606   13.8103    5.1607 H         1 <0>         0.1227
     58 H25         6.1545   12.6987    3.4623 H         1 <0>         0.1255
@<TRIPOS>BOND
     1    1    2 1
     2    1   35 1
     3    1   36 1
     4    1   37 1
     5    2    3 1
     6    2   38 1
     7    2   39 1
     8    3    4 1
     9    3   40 1
    10    3   41 1
    11    4   14 1
    12    4    5 am
    13    5    6 2
    14    5    7 1
    15    7   12 ar
    16    7    8 ar
    17    8    9 ar
    18    8   42 1
    19    9   10 ar
    20    9   43 1
    21   10   11 ar
    22   10   44 1
    23   11   12 ar
    24   11   45 1
    25   12   13 1
    26   13   14 2
    27   13   15 1
    28   15   16 2
    29   15   17 am
    30   17   18 1
    31   17   46 1
    32   18   19 am
    33   18   47 1
    34   19   20 2
    35   19   21 1
    36   21   22 1
    37   21   27 1
    38   21   23 1
    39   23   24 1
    40   23   48 1
    41   23   49 1
    42   24   25 2
    43   24   26 am
    44   26   27 1
    45   26   28 1
    46   27   50 1
    47   27   51 1
    48   28   29 1
    49   28   52 1
    50   28   53 1
    51   29   34 ar
    52   29   30 ar
    53   30   31 ar
    54   30   54 1
    55   31   32 ar
    56   31   55 1
    57   32   33 ar
    58   32   56 1
    59   33   34 ar
    60   33   57 1
    61   34   58 1
@<TRIPOS>MOLECULE
ZINC21532074
   56    58     0     0     0
SMALL
USER_CHARGES
N-(3,5-dimethoxyphenyl)-2-[methyl-[(2-oxo-1,3,4,5-tetrahydro-1-benzazepin-7-yl)sulfonyl]amino]acetamide
@<TRIPOS>ATOM
      1 C1         -5.1898   -0.2675    2.2558 C.3       1 <0>         0.0811
      2 N1         -4.3492   -1.2375    1.5498 N.pl3     1 <0>        -0.9794
      3 C2         -3.8806   -2.4410    2.2414 C.3       1 <0>         0.0949
      4 C3         -2.6212   -2.1230    3.0054 C.2       1 <0>         0.4868
      5 O1         -2.1603   -1.0015    2.9753 O.2       1 <0>        -0.4953
      6 N2         -2.0069   -3.0849    3.7223 N.am      1 <0>        -0.6832
      7 C4         -0.7870   -2.8163    4.3526 C.ar      1 <0>         0.2278
      8 C5          0.1769   -3.8104    4.4522 C.ar      1 <0>        -0.2169
      9 C6          1.3877   -3.5418    5.0719 C.ar      1 <0>         0.1845
     10 C7          1.6317   -2.2838    5.6023 C.ar      1 <0>        -0.3129
     11 C8          0.6669   -1.2919    5.5082 C.ar      1 <0>         0.1835
     12 C9         -0.5422   -1.5574    4.8837 C.ar      1 <0>        -0.1910
     13 O2          0.9069   -0.0593    6.0278 O.3       1 <0>        -0.3102
     14 C10         2.1737    0.1440    6.6570 C.3       1 <0>         0.0233
     15 O3          2.3334   -4.5133    5.1649 O.3       1 <0>        -0.3119
     16 C11         3.5549   -4.1689    5.8218 C.3       1 <0>         0.0234
     17 S1         -3.9286   -0.9737   -0.0300 S.o2      1 <0>         2.6946
     18 O4         -4.9186   -0.1126   -0.5755 O.2       1 <0>        -0.9496
     19 O5         -3.6335   -2.2460   -0.5897 O.2       1 <0>        -0.9564
     20 C12        -2.4193   -0.0646   -0.0225 C.ar      1 <0>        -0.6902
     21 C13        -2.4381    1.3186   -0.0122 C.ar      1 <0>         0.0123
     22 C14        -1.2529    2.0120   -0.0103 C.ar      1 <0>        -0.1810
     23 C15        -0.0138    1.3476   -0.0198 C.ar      1 <0>         0.2512
     24 C16        -0.0012   -0.0301   -0.0211 C.ar      1 <0>        -0.1322
     25 C17        -1.2120   -0.7243   -0.0263 C.ar      1 <0>         0.0321
     26 C18         1.2269   -0.8813   -0.0137 C.3       1 <0>        -0.0797
     27 C19         2.3811   -0.3513    0.7789 C.3       1 <0>        -0.1223
     28 C20         3.1364    0.7520    0.0778 C.3       1 <0>        -0.1447
     29 C21         2.3754    2.0288    0.0719 C.2       1 <0>         0.5217
     30 O6          3.0272    3.0462    0.1780 O.2       1 <0>        -0.5414
     31 N3          1.0852    2.1753   -0.0346 N.am      1 <0>        -0.6641
     32 H1         -5.4397    0.5626    1.5786 H         1 <0>         0.0904
     33 H2         -4.6457    0.1224    3.1287 H         1 <0>         0.0688
     34 H3         -6.1152   -0.7592    2.5902 H         1 <0>         0.0713
     35 H4         -4.6560   -2.7875    2.9405 H         1 <0>         0.1241
     36 H5         -3.6727   -3.2302    1.5039 H         1 <0>         0.1305
     37 H6         -2.4646   -4.0811    3.8119 H         1 <0>         0.4412
     38 H7         -0.0148   -4.7914    4.0434 H         1 <0>         0.1364
     39 H8          2.5734   -2.0763    6.0885 H         1 <0>         0.1341
     40 H9         -1.2932   -0.7848    4.8102 H         1 <0>         0.1475
     41 H10         2.2359    1.1767    7.0308 H         1 <0>         0.1042
     42 H11         2.9779   -0.0308    5.9271 H         1 <0>         0.0560
     43 H12         2.2824   -0.5574    7.4974 H         1 <0>         0.0572
     44 H13         4.2266   -5.0400    5.8271 H         1 <0>         0.1049
     45 H14         3.3413   -3.8643    6.8570 H         1 <0>         0.0570
     46 H15         4.0370   -3.3373    5.2870 H         1 <0>         0.0566
     47 H16        -3.3786    1.8495   -0.0061 H         1 <0>         0.1428
     48 H17        -1.2730    3.0918   -0.0009 H         1 <0>         0.1347
     49 H18        -1.2010   -1.8042   -0.0330 H         1 <0>         0.1344
     50 H19         0.9875   -1.8666    0.4127 H         1 <0>         0.0845
     51 H20         1.5925   -1.0065   -1.0436 H         1 <0>         0.0784
     52 H21         2.0148    0.0551    1.7332 H         1 <0>         0.0668
     53 H22         3.0945   -1.1649    0.9766 H         1 <0>         0.0855
     54 H23         4.0939    0.9244    0.5911 H         1 <0>         0.1087
     55 H24         3.3271    0.4602   -0.9655 H         1 <0>         0.1030
     56 H25         0.9552    3.2599   -0.1639 H         1 <0>         0.4262
@<TRIPOS>BOND
     1    1    2 1
     2    1   32 1
     3    1   33 1
     4    1   34 1
     5    2    3 1
     6    2   17 1
     7    3    4 1
     8    3   35 1
     9    3   36 1
    10    4    5 2
    11    4    6 am
    12    6    7 1
    13    6   37 1
    14    7   12 ar
    15    7    8 ar
    16    8    9 ar
    17    8   38 1
    18    9   10 ar
    19    9   15 1
    20   10   11 ar
    21   10   39 1
    22   11   12 ar
    23   11   13 1
    24   12   40 1
    25   13   14 1
    26   14   41 1
    27   14   42 1
    28   14   43 1
    29   15   16 1
    30   16   44 1
    31   16   45 1
    32   16   46 1
    33   17   18 2
    34   17   19 2
    35   17   20 1
    36   20   25 ar
    37   20   21 ar
    38   21   22 ar
    39   21   47 1
    40   22   23 ar
    41   22   48 1
    42   23   31 1
    43   23   24 ar
    44   24   25 ar
    45   24   26 1
    46   25   49 1
    47   26   27 1
    48   26   50 1
    49   26   51 1
    50   27   28 1
    51   27   52 1
    52   27   53 1
    53   28   29 1
    54   28   54 1
    55   28   55 1
    56   29   30 2
    57   29   31 am
    58   31   56 1
@<TRIPOS>MOLECULE
ZINC36732770
   44    47     0     0     0
SMALL
USER_CHARGES

@<TRIPOS>ATOM
      1 C1         -2.1938    1.4701    0.6085 C.3       1 <0>        -0.1732
      2 C2         -2.1690   -0.0367    0.6078 C.2       1 <0>         0.5087
      3 O1         -3.0610   -0.6581    1.1457 O.2       1 <0>        -0.5159
      4 N1         -1.1558   -0.6938    0.0094 N.am      1 <0>        -0.6761
      5 C3         -1.0812   -2.0886    0.0915 C.ar      1 <0>         0.1633
      6 C4          0.1559   -2.7151    0.1778 C.ar      1 <0>        -0.1273
      7 C5          0.2301   -4.0920    0.2589 C.ar      1 <0>        -0.0723
      8 C6         -0.9251   -4.8505    0.2549 C.ar      1 <0>        -0.1275
      9 C7         -2.1644   -4.2303    0.1689 C.ar      1 <0>         0.1381
     10 C8         -2.2428   -2.8473    0.0926 C.ar      1 <0>        -0.0988
     11 N2         -3.3359   -5.0009    0.1640 N.pl3     1 <0>        -0.3098
     12 C9         -3.5153   -6.2318   -0.3914 C.2       1 <0>         0.1990
     13 N3         -4.7633   -6.5787   -0.1598 N.2       1 <0>        -0.3302
     14 N4         -5.3724   -5.6583    0.4962 N.2       1 <0>        -0.0260
     15 N5         -4.5775   -4.6728    0.7365 N.2       1 <0>        -0.0550
     16 S1         -2.3068   -7.1787   -1.2560 S.3       1 <0>         0.1352
     17 C10        -3.1886   -8.6931   -1.7245 C.3       1 <0>        -0.1631
     18 C11        -2.2562   -9.6036   -2.4813 C.2       1 <0>         0.5347
     19 O2         -1.1098   -9.2643   -2.6845 O.2       1 <0>        -0.4474
     20 N6         -2.6964  -10.7950   -2.9322 N.am      1 <0>        -0.6103
     21 C12        -1.8390  -11.6322   -3.6281 C.2       1 <0>         0.3691
     22 N7         -0.5777  -11.4452   -3.9379 N.2       1 <0>        -0.4999
     23 C13         0.1436  -12.3563   -4.6274 C.ar      1 <0>         0.0922
     24 C14         1.4991  -12.2783   -5.0226 C.ar      1 <0>        -0.0319
     25 C15         2.0844  -13.2993   -5.7244 C.ar      1 <0>        -0.1364
     26 C16         1.3737  -14.4414   -6.0722 C.ar      1 <0>         0.1204
     27 C17         0.0443  -14.5507   -5.7010 C.ar      1 <0>        -0.0959
     28 C18        -0.5484  -13.5318   -4.9974 C.ar      1 <0>        -0.1287
     29 S2         -2.1678  -13.2447   -4.3252 S.3       1 <0>         0.0360
     30 F1          1.9730  -15.4342   -6.7652 F         1 <0>        -0.1251
     31 H1         -3.0821    1.8187    1.1353 H         1 <0>         0.0994
     32 H2         -1.3025    1.8478    1.1097 H         1 <0>         0.0944
     33 H3         -2.2145    1.8336   -0.4188 H         1 <0>         0.0939
     34 H4         -0.4783   -0.1997   -0.4782 H         1 <0>         0.4174
     35 H5          1.0604   -2.1249    0.1811 H         1 <0>         0.1407
     36 H6          1.1929   -4.5768    0.3252 H         1 <0>         0.1479
     37 H7         -0.8638   -5.9269    0.3185 H         1 <0>         0.1414
     38 H8         -3.2058   -2.3626    0.0297 H         1 <0>         0.1555
     39 H9         -3.5423   -9.2001   -0.8268 H         1 <0>         0.1417
     40 H10        -4.0392   -8.4375   -2.3564 H         1 <0>         0.1411
     41 H11        -3.6134  -11.0663   -2.7697 H         1 <0>         0.4354
     42 H12         2.0796  -11.4037   -4.7688 H         1 <0>         0.1472
     43 H13         3.1214  -13.2143   -6.0140 H         1 <0>         0.1499
     44 H14        -0.5226  -15.4317   -5.9633 H         1 <0>         0.1483
@<TRIPOS>BOND
     1    1    2 1
     2    1   31 1
     3    1   32 1
     4    1   33 1
     5    2    3 2
     6    2    4 am
     7    4    5 1
     8    4   34 1
     9    5   10 ar
    10    5    6 ar
    11    6    7 ar
    12    6   35 1
    13    7    8 ar
    14    7   36 1
    15    8    9 ar
    16    8   37 1
    17    9   10 ar
    18    9   11 1
    19   10   38 1
    20   11   15 1
    21   11   12 1
    22   12   13 2
    23   12   16 1
    24   13   14 1
    25   14   15 2
    26   16   17 1
    27   17   18 1
    28   17   39 1
    29   17   40 1
    30   18   19 2
    31   18   20 am
    32   20   21 1
    33   20   41 1
    34   21   29 1
    35   21   22 2
    36   22   23 1
    37   23   28 ar
    38   23   24 ar
    39   24   25 ar
    40   24   42 1
    41   25   26 ar
    42   25   43 1
    43   26   27 ar
    44   26   30 1
    45   27   28 ar
    46   27   44 1
    47   28   29 1
@<TRIPOS>MOLECULE
ZINC44174833
   59    62     0     0     0
SMALL
USER_CHARGES

@<TRIPOS>ATOM
      1 C1         -0.1541    1.8269   -0.9762 C.3       1 <0>        -0.1533
      2 C2         -0.2418    0.3890   -0.4609 C.3       1 <0>        -0.1248
      3 C3          0.7182   -0.4975   -1.2568 C.3       1 <0>        -0.1012
      4 H1          0.5021   -0.4032   -2.3210 H         1 <0>         0.1330
      5 C4          2.1590   -0.0585   -0.9881 C.3       1 <0>        -0.1817
      6 C5          0.5408   -1.9553   -0.8275 C.3       1 <0>         0.0099
      7 C6          1.4296   -2.8610   -1.6634 C.3       1 <0>        -0.1026
      8 H2          1.0426   -3.8785   -1.7191 H         1 <0>         0.1589
      9 C7          2.7491   -2.7468   -0.8081 C.3       1 <0>        -0.2346
     10 H3          2.9636   -1.6782   -0.7959 H         1 <0>         0.1570
     11 C8          2.2498   -2.9855    0.5566 C.3       1 <0>         0.1367
     12 H4          2.9662   -2.6326    1.2986 H         1 <0>         0.1561
     13 N1          0.9968   -2.1375    0.5836 N.4       1 <0>        -0.5057
     14 C9          1.9403   -4.4454    0.7662 C.2       1 <0>        -0.2254
     15 C10         2.4974   -5.1032    1.7734 C.2       1 <0>        -0.0175
     16 C11         2.1938   -6.5351    1.9789 C.ar      1 <0>        -0.0879
     17 C12         1.3257   -7.1988    1.1112 C.ar      1 <0>        -0.0967
     18 C13         1.0464   -8.5355    1.3086 C.ar      1 <0>        -0.1201
     19 C14         1.6247   -9.2175    2.3643 C.ar      1 <0>        -0.1007
     20 C15         2.4858   -8.5651    3.2284 C.ar      1 <0>        -0.1225
     21 C16         2.7786   -7.2303    3.0381 C.ar      1 <0>        -0.0919
     22 C17         3.7384   -3.2510   -1.7276 C.2       1 <0>         0.5853
     23 O1          4.7349   -3.8882   -1.4622 O.2       1 <0>        -0.4243
     24 N2          3.3074   -2.8531   -2.9690 N.am      1 <0>        -0.5433
     25 C18         2.0054   -2.4039   -2.9671 C.2       1 <0>         0.5574
     26 O2          1.4414   -1.7687   -3.8319 O.2       1 <0>        -0.4031
     27 C19         4.1037   -2.9065   -4.1217 C.ar      1 <0>         0.1305
     28 C20         3.5935   -2.4785   -5.3400 C.ar      1 <0>        -0.0914
     29 C21         4.3802   -2.5324   -6.4738 C.ar      1 <0>        -0.0872
     30 C22         5.6750   -3.0121   -6.3965 C.ar      1 <0>        -0.0619
     31 C23         6.1856   -3.4395   -5.1848 C.ar      1 <0>        -0.0252
     32 C24         5.4055   -3.3822   -4.0462 C.ar      1 <0>        -0.0851
     33 N3          7.5717   -3.9527   -5.1064 N.pl3     1 <0>         0.0312
     34 O3          8.2568   -3.9980   -6.1015 O.2       1 <0>        -0.1472
     35 O4          8.0188   -4.3266   -4.0471 O.3       1 <0>        -0.1489
     36 C25        -0.9024   -2.3666   -0.9660 C.2       1 <0>         0.5086
     37 O5         -1.4433   -2.3343   -2.0582 O.co2     1 <0>        -0.6123
     38 O6         -1.5290   -2.7316    0.0141 O.co2     1 <0>        -0.6553
     39 H5          0.8648    2.1947   -0.8552 H         1 <0>         0.0564
     40 H6         -0.4265    1.8520   -2.0313 H         1 <0>         0.0633
     41 H7         -0.8380    2.4584   -0.4092 H         1 <0>         0.0636
     42 H8          0.0306    0.3638    0.5942 H         1 <0>         0.0561
     43 H9         -1.2608    0.0212   -0.5819 H         1 <0>         0.0900
     44 H10         2.4603   -0.3892    0.0058 H         1 <0>         0.0538
     45 H11         2.8189   -0.5015   -1.7340 H         1 <0>         0.0622
     46 H12         2.2244    1.0281   -1.0448 H         1 <0>         0.1000
     47 H13         1.1937   -1.2387    0.9978 H         1 <0>         0.4196
     48 H14         1.2646   -4.9558    0.0959 H         1 <0>         0.1399
     49 H15         3.1731   -4.5928    2.4437 H         1 <0>         0.1323
     50 H16         0.8732   -6.6673    0.2872 H         1 <0>         0.1257
     51 H17         0.3747   -9.0504    0.6378 H         1 <0>         0.1284
     52 H18         1.4025  -10.2637    2.5147 H         1 <0>         0.1271
     53 H19         2.9334   -9.1030    4.0511 H         1 <0>         0.1284
     54 H20         3.4550   -6.7234    3.7103 H         1 <0>         0.1281
     55 H21         2.5823   -2.1041   -5.4011 H         1 <0>         0.1693
     56 H22         3.9838   -2.1999   -7.4218 H         1 <0>         0.1609
     57 H23         6.2884   -3.0533   -7.2844 H         1 <0>         0.1615
     58 H24         5.8065   -3.7116   -3.0990 H         1 <0>         0.1787
     59 H25         0.2815   -2.6104    1.1155 H         1 <0>         0.4418
@<TRIPOS>BOND
     1    1    2 1
     2    1   39 1
     3    1   40 1
     4    1   41 1
     5    2    3 1
     6    2   42 1
     7    2   43 1
     8    3    4 1
     9    3    5 1
    10    3    6 1
    11    5   44 1
    12    5   45 1
    13    5   46 1
    14    6   13 1
    15    6    7 1
    16    6   36 1
    17    7    8 1
    18    7   25 1
    19    7    9 1
    20    9   10 1
    21    9   11 1
    22    9   22 1
    23   11   12 1
    24   11   13 1
    25   11   14 1
    26   13   47 1
    27   13   59 1
    28   14   15 2
    29   14   48 1
    30   15   16 1
    31   15   49 1
    32   16   21 ar
    33   16   17 ar
    34   17   18 ar
    35   17   50 1
    36   18   19 ar
    37   18   51 1
    38   19   20 ar
    39   19   52 1
    40   20   21 ar
    41   20   53 1
    42   21   54 1
    43   22   23 2
    44   22   24 am
    45   24   25 am
    46   24   27 1
    47   25   26 2
    48   27   32 ar
    49   27   28 ar
    50   28   29 ar
    51   28   55 1
    52   29   30 ar
    53   29   56 1
    54   30   31 ar
    55   30   57 1
    56   31   32 ar
    57   31   33 1
    58   32   58 1
    59   33   34 2
    60   33   35 1
    61   36   37 2
    62   36   38 1
@<TRIPOS>MOLECULE
ZINC09662024
   58    60     0     0     0
SMALL
USER_CHARGES

@<TRIPOS>ATOM
      1 C1         -0.8235   -4.9649    0.2991 C.3       1 <0>         0.0789
      2 N1         -0.6542   -3.7511   -0.5036 N.pl3     1 <0>        -1.0036
      3 C2         -1.2398   -3.6719   -1.8442 C.3       1 <0>         0.0900
      4 S1          0.1991   -2.4687    0.1043 S.o2      1 <0>         2.6908
      5 O1         -0.2593   -1.3131   -0.5838 O.2       1 <0>        -0.9468
      6 O2          0.1493   -2.5823    1.5199 O.2       1 <0>        -0.9470
      7 C3          1.8834   -2.6965   -0.3602 C.ar      1 <0>        -0.6537
      8 C4          2.7372   -3.4019    0.4691 C.ar      1 <0>        -0.0240
      9 C5          4.0571   -3.5839    0.1114 C.ar      1 <0>        -0.0750
     10 C6          4.5306   -3.0545   -1.0903 C.ar      1 <0>        -0.0832
     11 C7          3.6639   -2.3439   -1.9224 C.ar      1 <0>        -0.1064
     12 C8          2.3449   -2.1740   -1.5554 C.ar      1 <0>        -0.0261
     13 C9          5.9437   -3.2452   -1.4798 C.2       1 <0>         0.5579
     14 O3          6.6963   -3.8641   -0.7530 O.2       1 <0>        -0.4976
     15 N2          6.3978   -2.7328   -2.6407 N.am      1 <0>        -0.6696
     16 C10         7.7550   -2.8287   -2.9640 C.ar      1 <0>         0.1992
     17 C11         8.3806   -1.7983   -3.6539 C.ar      1 <0>        -0.1625
     18 C12         9.7211   -1.8959   -3.9712 C.ar      1 <0>         0.0029
     19 C13        10.4404   -3.0181   -3.6031 C.ar      1 <0>        -0.6597
     20 C14         9.8204   -4.0460   -2.9165 C.ar      1 <0>         0.0022
     21 C15         8.4816   -3.9519   -2.5907 C.ar      1 <0>        -0.1410
     22 S2         12.1504   -3.1389   -4.0104 S.o2      1 <0>         2.6349
     23 O4         12.4654   -4.5244   -4.0340 O.2       1 <0>        -0.9766
     24 O5         12.3621   -2.2904   -5.1303 O.2       1 <0>        -0.9653
     25 N3         13.0013   -2.4815   -2.7509 N.2       1 <0>        -0.9524
     26 C16        14.2933   -2.4428   -2.7938 C.2       1 <0>         0.5806
     27 N4         14.9983   -2.9456   -3.8981 N.pl3     1 <0>        -0.8252
     28 C17        15.6853   -1.9958   -4.7239 C.3       1 <0>         0.1265
     29 C18        17.1270   -1.6628   -4.3052 C.3       1 <0>        -0.1429
     30 C19        17.2230   -1.5156   -2.7657 C.3       1 <0>        -0.1257
     31 C20        16.0455   -0.7955   -2.1705 C.3       1 <0>        -0.1085
     32 C21        15.0619   -1.8738   -1.7068 C.3       1 <0>        -0.1196
     33 H1         -0.0011   -5.6513    0.0978 H         1 <0>         0.0578
     34 H2         -0.8276   -4.7031    1.3572 H         1 <0>         0.0862
     35 H3         -1.7679   -5.4434    0.0395 H         1 <0>         0.0817
     36 H4         -2.2495   -3.2668   -1.7762 H         1 <0>         0.0650
     37 H5         -0.6286   -3.0213   -2.4697 H         1 <0>         0.0721
     38 H6         -1.2770   -4.6685   -2.2839 H         1 <0>         0.0768
     39 H7          2.3697   -3.8106    1.3988 H         1 <0>         0.1517
     40 H8          4.7226   -4.1344    0.7598 H         1 <0>         0.1509
     41 H9          4.0240   -1.9315   -2.8533 H         1 <0>         0.1378
     42 H10         1.6722   -1.6282   -2.2003 H         1 <0>         0.1500
     43 H11         5.7832   -2.2975   -3.2520 H         1 <0>         0.4162
     44 H12         7.8192   -0.9219   -3.9423 H         1 <0>         0.1400
     45 H13        10.2082   -1.0950   -4.5077 H         1 <0>         0.1463
     46 H14        10.3849   -4.9213   -2.6308 H         1 <0>         0.1450
     47 H15         7.9991   -4.7531   -2.0506 H         1 <0>         0.1511
     48 H16        15.7073   -2.3832   -5.7425 H         1 <0>         0.0798
     49 H17        15.1098   -1.0702   -4.7294 H         1 <0>         0.0685
     50 H18        17.7914   -2.4624   -4.6329 H         1 <0>         0.0682
     51 H19        17.4325   -0.7286   -4.7763 H         1 <0>         0.0761
     52 H20        17.2881   -2.5088   -2.3216 H         1 <0>         0.0656
     53 H21        18.1313   -0.9645   -2.5218 H         1 <0>         0.0649
     54 H22        16.3667   -0.1920   -1.3215 H         1 <0>         0.0870
     55 H23        15.5749   -0.1629   -2.9232 H         1 <0>         0.0744
     56 H24        14.3757   -1.4342   -0.9829 H         1 <0>         0.1048
     57 H25        15.6229   -2.6703   -1.2179 H         1 <0>         0.1134
     58 H26        15.0203   -3.8953   -4.0942 H         1 <0>         0.4171
@<TRIPOS>BOND
     1    1    2 1
     2    1   33 1
     3    1   34 1
     4    1   35 1
     5    2    3 1
     6    2    4 1
     7    3   36 1
     8    3   37 1
     9    3   38 1
    10    4    5 2
    11    4    6 2
    12    4    7 1
    13    7   12 ar
    14    7    8 ar
    15    8    9 ar
    16    8   39 1
    17    9   10 ar
    18    9   40 1
    19   10   11 ar
    20   10   13 1
    21   11   12 ar
    22   11   41 1
    23   12   42 1
    24   13   14 2
    25   13   15 am
    26   15   16 1
    27   15   43 1
    28   16   21 ar
    29   16   17 ar
    30   17   18 ar
    31   17   44 1
    32   18   19 ar
    33   18   45 1
    34   19   20 ar
    35   19   22 1
    36   20   21 ar
    37   20   46 1
    38   21   47 1
    39   22   23 2
    40   22   24 2
    41   22   25 1
    42   25   26 2
    43   26   32 1
    44   26   27 1
    45   27   28 1
    46   27   58 1
    47   28   29 1
    48   28   48 1
    49   28   49 1
    50   29   30 1
    51   29   50 1
    52   29   51 1
    53   30   31 1
    54   30   52 1
    55   30   53 1
    56   31   32 1
    57   31   54 1
    58   31   55 1
    59   32   56 1
    60   32   57 1
@<TRIPOS>MOLECULE
ZINC05286054
   33    35     0     0     0
SMALL
USER_CHARGES
2-[(2R)-3-chloro-2-hydroxy-propyl]-4-methyl-7,8-dihydropurino[8,7-b]thiazole-1,3-dione
@<TRIPOS>ATOM
      1 C1          1.5171    4.7167   -4.4950 C.3       1 <0>         0.0840
      2 N1          1.1106    3.3967   -4.0067 N.am      1 <0>        -0.5078
      3 C2          0.1114    2.6917   -4.6605 C.2       1 <0>         0.3437
      4 C3         -0.2523    1.4450   -4.1750 C.2       1 <0>        -0.1295
      5 C4          0.3969    0.9250   -3.0434 C.2       1 <0>         0.6007
      6 O1          0.0928   -0.1710   -2.6055 O.2       1 <0>        -0.5081
      7 N2          1.3594    1.6583   -2.4445 N.am      1 <0>        -0.5429
      8 C5          1.7064    2.8660   -2.9219 C.2       1 <0>         0.7101
      9 O2          2.5811    3.4961   -2.3591 O.2       1 <0>        -0.5303
     10 C6          2.0397    1.1274   -1.2607 C.3       1 <0>         0.0834
     11 C7          1.2864    1.5618   -0.0018 C.3       1 <0>         0.0851
     12 H1          1.1856    2.6471    0.0050 H         1 <0>         0.1166
     13 C8          2.0636    1.1140    1.2377 C.3       1 <0>        -0.0675
     14 Cl1         1.2543    1.7516    2.7173 Cl        1 <0>        -0.1600
     15 O3         -0.0110    0.9628    0.0073 O.3       1 <0>        -0.5417
     16 N3         -1.2732    0.9557   -5.0117 N.pl3     1 <0>        -0.4463
     17 C9         -1.4588    1.9285   -5.9397 C.2       1 <0>         0.2766
     18 N4         -0.6452    2.9410   -5.7278 N.2       1 <0>        -0.4548
     19 S1         -2.7450    1.3610   -7.0290 S.3       1 <0>         0.0210
     20 C10        -3.0951   -0.2606   -6.2531 C.3       1 <0>        -0.1067
     21 C11        -2.0933   -0.2519   -5.0879 C.3       1 <0>         0.0887
     22 H2          2.3082    5.1121   -3.8579 H         1 <0>         0.1059
     23 H3          1.8841    4.6287   -5.5176 H         1 <0>         0.0818
     24 H4          0.6614    5.3916   -4.4729 H         1 <0>         0.0820
     25 H5          3.0592    1.5115   -1.2247 H         1 <0>         0.1165
     26 H6          2.0631    0.0389   -1.3127 H         1 <0>         0.1095
     27 H7          2.0879    0.0250    1.2775 H         1 <0>         0.1005
     28 H8          3.0822    1.4985    1.1863 H         1 <0>         0.1074
     29 H9          0.0021   -0.0041    0.0020 H         1 <0>         0.3801
     30 H10        -4.1211   -0.3078   -5.8881 H         1 <0>         0.1370
     31 H11        -2.8885   -1.0787   -6.9431 H         1 <0>         0.1369
     32 H12        -2.6463   -0.3549   -4.1543 H         1 <0>         0.1146
     33 H13        -1.4311   -1.1113   -5.1936 H         1 <0>         0.1133
@<TRIPOS>BOND
     1    1    2 1
     2    1   22 1
     3    1   23 1
     4    1   24 1
     5    2    8 am
     6    2    3 1
     7    3   18 1
     8    3    4 2
     9    4    5 1
    10    4   16 1
    11    5    6 2
    12    5    7 am
    13    7    8 am
    14    7   10 1
    15    8    9 2
    16   10   11 1
    17   10   25 1
    18   10   26 1
    19   11   12 1
    20   11   13 1
    21   11   15 1
    22   13   14 1
    23   13   27 1
    24   13   28 1
    25   15   29 1
    26   16   21 1
    27   16   17 1
    28   17   18 2
    29   17   19 1
    30   19   20 1
    31   20   21 1
    32   20   30 1
    33   20   31 1
    34   21   32 1
    35   21   33 1
@<TRIPOS>MOLECULE
ZINC40579527
   46    47     0     0     0
SMALL
USER_CHARGES

@<TRIPOS>ATOM
      1 C1         -0.8974    1.2193    0.0562 C.3       1 <0>        -0.1505
      2 C2         -0.3398   -0.2053    0.0749 C.3       1 <0>        -0.1161
      3 C3          0.2079   -0.5568   -1.3098 C.3       1 <0>         0.0784
      4 H1         -0.5698   -0.4047   -2.0583 H         1 <0>         0.0657
      5 C4          0.6548   -2.0231   -1.3266 C.3       1 <0>         0.0976
      6 N1          1.3456   -2.2832   -2.5996 N.am      1 <0>        -0.6262
      7 C5          2.4177   -1.3608   -3.0058 C.3       1 <0>         0.0421
      8 C6          1.8849    0.0732   -2.9072 C.3       1 <0>         0.0476
      9 O1          1.3274    0.2809   -1.6073 O.3       1 <0>        -0.3697
     10 C7          1.0066   -3.3355   -3.3705 C.2       1 <0>         0.7196
     11 O2          0.0140   -3.9867   -3.1080 O.2       1 <0>        -0.5625
     12 N2          1.7680   -3.6659   -4.4324 N.am      1 <0>        -0.6480
     13 C8          3.1614   -3.2058   -4.5365 C.3       1 <0>         0.0672
     14 C9          4.0500   -4.4147   -4.8478 C.3       1 <0>        -0.0220
     15 N3          3.5456   -5.0960   -6.0467 N.4       1 <0>        -0.3846
     16 C10         2.2092   -5.6451   -5.7848 C.3       1 <0>        -0.0240
     17 C11         1.2311   -4.5019   -5.5172 C.3       1 <0>         0.1104
     18 C12         4.4594   -6.1878   -6.4083 C.3       1 <0>         0.0143
     19 C13         4.0042   -6.8187   -7.7257 C.3       1 <0>        -0.2155
     20 C14         4.9416   -7.9388   -8.0967 C.2       1 <0>         0.4970
     21 O3          5.8863   -8.2076   -7.3743 O.co2     1 <0>        -0.6866
     22 O4          4.7554   -8.5762   -9.1191 O.co2     1 <0>        -0.6711
     23 H2         -0.1028    1.9171   -0.2081 H         1 <0>         0.0626
     24 H3         -1.6991    1.2861   -0.6794 H         1 <0>         0.0529
     25 H4         -1.2876    1.4698    1.0426 H         1 <0>         0.0590
     26 H5          0.4618   -0.2721    0.8104 H         1 <0>         0.0753
     27 H6         -1.1344   -0.9031    0.3392 H         1 <0>         0.0816
     28 H7          1.3348   -2.2091   -0.4952 H         1 <0>         0.0795
     29 H8         -0.2159   -2.6733   -1.2419 H         1 <0>         0.1062
     30 H9          3.2752   -1.4801   -2.3435 H         1 <0>         0.0856
     31 H10         2.7145   -1.5724   -4.0330 H         1 <0>         0.1118
     32 H11         2.7013    0.7769   -3.0699 H         1 <0>         0.1104
     33 H12         1.1140    0.2278   -3.6621 H         1 <0>         0.0568
     34 H13         3.2461   -2.4727   -5.3386 H         1 <0>         0.0968
     35 H14         3.4706   -2.7574   -3.5923 H         1 <0>         0.1408
     36 H15         5.0720   -4.0788   -5.0235 H         1 <0>         0.1429
     37 H16         4.0340   -5.1044   -4.0040 H         1 <0>         0.1311
     38 H17         1.8747   -6.2159   -6.6511 H         1 <0>         0.1472
     39 H18         2.2489   -6.2976   -4.9126 H         1 <0>         0.1321
     40 H19         0.2647   -4.9099   -5.2212 H         1 <0>         0.1335
     41 H20         1.1176   -3.9019   -6.4201 H         1 <0>         0.0912
     42 H21         5.4689   -5.7934   -6.5241 H         1 <0>         0.1317
     43 H22         4.4523   -6.9429   -5.6223 H         1 <0>         0.1284
     44 H23         2.9947   -7.2131   -7.6100 H         1 <0>         0.0811
     45 H24         4.0113   -6.0636   -8.5118 H         1 <0>         0.0811
     46 H25         3.4938   -4.4375   -6.8095 H         1 <0>         0.4170
@<TRIPOS>BOND
     1    1    2 1
     2    1   23 1
     3    1   24 1
     4    1   25 1
     5    2    3 1
     6    2   26 1
     7    2   27 1
     8    3    4 1
     9    3    9 1
    10    3    5 1
    11    5    6 1
    12    5   28 1
    13    5   29 1
    14    6    7 1
    15    6   10 am
    16    7    8 1
    17    7   30 1
    18    7   31 1
    19    8    9 1
    20    8   32 1
    21    8   33 1
    22   10   11 2
    23   10   12 am
    24   12   17 1
    25   12   13 1
    26   13   14 1
    27   13   34 1
    28   13   35 1
    29   14   15 1
    30   14   36 1
    31   14   37 1
    32   15   16 1
    33   15   18 1
    34   15   46 1
    35   16   17 1
    36   16   38 1
    37   16   39 1
    38   17   40 1
    39   17   41 1
    40   18   19 1
    41   18   42 1
    42   18   43 1
    43   19   20 1
    44   19   44 1
    45   19   45 1
    46   20   21 2
    47   20   22 1
@<TRIPOS>MOLECULE
ZINC49481202
   39    42     0     0     0
SMALL
USER_CHARGES

@<TRIPOS>ATOM
      1 C1         -0.0167    1.3790    0.0096 C.ar      1 <0>        -0.0898
      2 C2          1.1687    2.0918    0.0021 C.ar      1 <0>        -0.1239
      3 C3          2.3774    1.4257   -0.0129 C.ar      1 <0>        -0.0757
      4 C4          2.4021    0.0327   -0.0206 C.ar      1 <0>        -0.0449
      5 C5          1.2051   -0.6804   -0.0130 C.ar      1 <0>        -0.0641
      6 C6          0.0021   -0.0041    0.0020 C.ar      1 <0>        -0.1255
      7 C7          3.6989   -0.6891   -0.0373 C.2       1 <0>         0.3006
      8 N1          3.8530   -2.0253   -0.0514 N.2       1 <0>        -0.5254
      9 C8          5.1197   -2.3280   -0.0646 C.2       1 <0>         0.2983
     10 O1          5.8280   -1.1914   -0.0594 O.3       1 <0>        -0.0984
     11 N2          4.8841   -0.1309   -0.0465 N.2       1 <0>        -0.3279
     12 C9          5.6918   -3.7221   -0.0818 C.3       1 <0>        -0.0448
     13 C10         6.9797   -3.8739    0.7479 C.3       1 <0>         0.1208
     14 N3          7.4855   -4.6909   -0.3722 N.am      1 <0>        -0.6430
     15 C11         6.5688   -4.0170   -1.3122 C.3       1 <0>         0.1147
     16 C12         8.4124   -5.6623   -0.4896 C.2       1 <0>         0.5342
     17 O2          9.0344   -6.0279    0.4852 O.2       1 <0>        -0.5143
     18 C13         8.6760   -6.2940   -1.8322 C.3       1 <0>         0.1204
     19 H1          7.7379   -6.4544   -2.3636 H         1 <0>         0.1080
     20 C14         9.6179   -5.3995   -2.6683 C.3       1 <0>        -0.1216
     21 C15        10.4601   -6.4511   -3.4271 C.3       1 <0>        -0.1549
     22 C16        10.3938   -7.6823   -2.5504 C.2       1 <0>         0.5231
     23 O3         11.1381   -8.6361   -2.6350 O.2       1 <0>        -0.5225
     24 N4          9.3882   -7.5661   -1.6638 N.am      1 <0>        -0.7134
     25 H2         -0.9602    1.9042    0.0260 H         1 <0>         0.1312
     26 H3          1.1483    3.1716    0.0077 H         1 <0>         0.1336
     27 H4          3.3023    1.9832   -0.0191 H         1 <0>         0.1322
     28 H5          1.2187   -1.7603   -0.0193 H         1 <0>         0.1391
     29 H6         -0.9264   -0.5558    0.0079 H         1 <0>         0.1340
     30 H7          4.9452   -4.4904    0.1192 H         1 <0>         0.1548
     31 H8          7.5229   -2.9398    0.8907 H         1 <0>         0.1017
     32 H9          6.8428   -4.4336    1.6731 H         1 <0>         0.1031
     33 H10         6.1039   -4.6909   -2.0318 H         1 <0>         0.1064
     34 H11         6.9914   -3.1249   -1.7745 H         1 <0>         0.1027
     35 H12         9.0517   -4.7785   -3.3624 H         1 <0>         0.1026
     36 H13        10.2478   -4.7866   -2.0236 H         1 <0>         0.0892
     37 H14        10.0244   -6.6553   -4.4051 H         1 <0>         0.1121
     38 H15        11.4907   -6.1118   -3.5309 H         1 <0>         0.1096
     39 H16         9.1634   -8.2354   -0.9987 H         1 <0>         0.4172
@<TRIPOS>BOND
     1    1    6 ar
     2    1    2 ar
     3    1   25 1
     4    2    3 ar
     5    2   26 1
     6    3    4 ar
     7    3   27 1
     8    4    5 ar
     9    4    7 1
    10    5    6 ar
    11    5   28 1
    12    6   29 1
    13    7   11 2
    14    7    8 1
    15    8    9 2
    16    9   10 1
    17    9   12 1
    18   10   11 1
    19   12   15 1
    20   12   13 1
    21   12   30 1
    22   13   14 1
    23   13   31 1
    24   13   32 1
    25   14   15 1
    26   14   16 am
    27   15   33 1
    28   15   34 1
    29   16   17 2
    30   16   18 1
    31   18   19 1
    32   18   24 1
    33   18   20 1
    34   20   21 1
    35   20   35 1
    36   20   36 1
    37   21   22 1
    38   21   37 1
    39   21   38 1
    40   22   23 2
    41   22   24 am
    42   24   39 1
@<TRIPOS>MOLECULE
ZINC63198980
   35    36     0     0     0
SMALL
USER_CHARGES

@<TRIPOS>ATOM
      1 C1         -0.0184    1.5028    0.0103 C.3       1 <0>        -0.0901
      2 C2          0.0021   -0.0041    0.0020 C.2       1 <0>         0.1201
      3 C3          0.0080   -0.8237   -1.1409 C.2       1 <0>        -0.2767
      4 C4          0.0273   -2.1079   -0.7353 C.2       1 <0>         0.1071
      5 O1          0.0335   -2.1190    0.6064 O.3       1 <0>        -0.0778
      6 N1          0.0230   -0.7748    1.0524 N.2       1 <0>        -0.3179
      7 C5          0.0393   -3.3197   -1.6311 C.3       1 <0>        -0.0988
      8 C6         -0.0053   -0.3478   -2.5707 C.3       1 <0>         0.1933
      9 N2          1.3714   -0.1745   -3.0406 N.pl3     1 <0>        -1.1136
     10 S1          1.6805   -0.0226   -4.6603 S.o2      1 <0>         2.7206
     11 O2          3.0843    0.1555   -4.7909 O.2       1 <0>        -0.9469
     12 O3          0.9830   -1.0780   -5.3076 O.2       1 <0>        -0.9488
     13 C7          0.9305    1.4793   -5.1953 C.2       1 <0>        -0.8039
     14 C8         -0.3757    1.6219   -5.6746 C.2       1 <0>         0.1703
     15 N3         -0.5673    2.8816   -5.9715 N.2       1 <0>        -0.2689
     16 N4          0.6125    3.5826   -5.6904 N.pl3     1 <0>        -0.3463
     17 C9          1.5149    2.7013   -5.2097 C.2       1 <0>         0.2360
     18 Cl1         3.1351    3.0674   -4.7050 Cl        1 <0>         0.0374
     19 C10         0.8269    5.0195   -5.8788 C.3       1 <0>         0.0823
     20 C11        -1.3878    0.5153   -5.8237 C.3       1 <0>        -0.1126
     21 H1          1.0042    1.8801    0.0026 H         1 <0>         0.0913
     22 H2         -0.5455    1.8639   -0.8728 H         1 <0>         0.0869
     23 H3         -0.5286    1.8543    0.9071 H         1 <0>         0.0845
     24 H4          1.0697   -3.5980   -1.8521 H         1 <0>         0.1004
     25 H5         -0.4610   -4.1477   -1.1290 H         1 <0>         0.0911
     26 H6         -0.4822   -3.0898   -2.5603 H         1 <0>         0.1020
     27 H7         -0.5120   -1.0846   -3.1941 H         1 <0>         0.0942
     28 H8         -0.5327    0.6041   -2.6319 H         1 <0>         0.0764
     29 H9          2.1019   -0.1486   -2.4029 H         1 <0>         0.4209
     30 H10         0.5486    5.5508   -4.9687 H         1 <0>         0.0909
     31 H11         1.8781    5.2040   -6.1002 H         1 <0>         0.0970
     32 H12         0.2136    5.3728   -6.7077 H         1 <0>         0.1052
     33 H13        -1.9637    0.4231   -4.9029 H         1 <0>         0.0900
     34 H14        -2.0592    0.7460   -6.6508 H         1 <0>         0.0886
     35 H15        -0.8723   -0.4237   -6.0254 H         1 <0>         0.1159
@<TRIPOS>BOND
     1    1    2 1
     2    1   21 1
     3    1   22 1
     4    1   23 1
     5    2    6 2
     6    2    3 1
     7    3    4 2
     8    3    8 1
     9    4    5 1
    10    4    7 1
    11    5    6 1
    12    7   24 1
    13    7   25 1
    14    7   26 1
    15    8    9 1
    16    8   27 1
    17    8   28 1
    18    9   10 1
    19    9   29 1
    20   10   11 2
    21   10   12 2
    22   10   13 1
    23   13   17 2
    24   13   14 1
    25   14   15 2
    26   14   20 1
    27   15   16 1
    28   16   17 1
    29   16   19 1
    30   17   18 1
    31   19   30 1
    32   19   31 1
    33   19   32 1
    34   20   33 1
    35   20   34 1
    36   20   35 1
@<TRIPOS>MOLECULE
ZINC66255198
   32    34     0     0     0
SMALL
USER_CHARGES

@<TRIPOS>ATOM
      1 C1         -0.0178    1.4608    0.0101 C.3       1 <0>         0.0551
      2 N1          0.0021   -0.0041    0.0020 N.pl3     1 <0>        -0.4205
      3 C2          0.0081   -0.8102   -1.1042 C.2       1 <0>         0.1419
      4 C3          0.0282   -2.0813   -0.6599 C.2       1 <0>        -0.4899
      5 N2          0.0342   -2.0521    0.6810 N.pl3     1 <0>        -0.4212
      6 C4          0.0238   -0.8111    1.0845 C.cat     1 <0>         0.3056
      7 S1          0.0437   -3.5291   -1.6641 S.o2      1 <0>         2.6141
      8 O1          0.5832   -3.1454   -2.9215 O.2       1 <0>        -0.9590
      9 O2          0.6130   -4.5646   -0.8750 O.2       1 <0>        -0.9719
     10 N3         -1.5337   -3.9537   -1.9356 N.2       1 <0>        -0.9985
     11 C5         -1.8268   -5.0608   -2.6991 C.2       1 <0>         0.4253
     12 N4         -3.0187   -5.5409   -3.0212 N.2       1 <0>        -0.5884
     13 C6         -3.1618   -6.6120   -3.7630 C.2       1 <0>         0.2183
     14 C7         -1.9561   -7.1916   -4.1788 C.2       1 <0>        -0.3980
     15 S2         -0.7534   -6.1220   -3.4514 S.3       1 <0>         0.0010
     16 C8         -1.8392   -8.3242   -4.9748 C.2       1 <0>         0.4419
     17 O3         -0.7529   -8.7788   -5.2745 O.2       1 <0>        -0.4954
     18 C9         -3.1268   -8.9697   -5.4535 C.3       1 <0>        -0.1519
     19 C10        -4.2245   -8.7471   -4.4127 C.3       1 <0>        -0.1122
     20 C11        -4.4748   -7.2528   -4.1883 C.3       1 <0>        -0.0488
     21 H1          1.0048    1.8381    0.0023 H         1 <0>         0.1114
     22 H2         -0.5450    1.8219   -0.8730 H         1 <0>         0.1198
     23 H3         -0.5280    1.8123    0.9069 H         1 <0>         0.1169
     24 H4         -0.0017   -0.4887   -2.1352 H         1 <0>         0.2391
     25 H5          0.0290   -0.4838    2.1137 H         1 <0>         0.2701
     26 H6         -3.4277   -8.5218   -6.4006 H         1 <0>         0.0970
     27 H7         -2.9680  -10.0392   -5.5912 H         1 <0>         0.0926
     28 H8         -5.1457   -9.2162   -4.7582 H         1 <0>         0.0813
     29 H9         -3.9224   -9.2047   -3.4706 H         1 <0>         0.0699
     30 H10        -5.2207   -7.1181   -3.4050 H         1 <0>         0.0909
     31 H11        -4.8250   -6.7952   -5.1135 H         1 <0>         0.0925
     32 H12         0.0480   -2.8306    1.2596 H         1 <0>         0.4710
@<TRIPOS>BOND
     1    1    2 1
     2    1   21 1
     3    1   22 1
     4    1   23 1
     5    2    6 1
     6    2    3 1
     7    3    4 2
     8    3   24 1
     9    4    5 1
    10    4    7 1
    11    5    6 2
    12    5   32 1
    13    6   25 1
    14    7    8 2
    15    7    9 2
    16    7   10 1
    17   10   11 1
    18   11   15 1
    19   11   12 2
    20   12   13 1
    21   13   20 1
    22   13   14 2
    23   14   15 1
    24   14   16 1
    25   16   17 2
    26   16   18 1
    27   18   19 1
    28   18   26 1
    29   18   27 1
    30   19   20 1
    31   19   28 1
    32   19   29 1
    33   20   30 1
    34   20   31 1
@<TRIPOS>MOLECULE
ZINC12748123
   35    37     0     0     0
SMALL
USER_CHARGES
5-[(5-amino-1,3,4-thiadiazol-2-yl)sulfanylmethyl]-N-(p-tolyl)-1,3,4-thiadiazole-2-carboxamide
@<TRIPOS>ATOM
      1 C1          1.2679   -6.3195    0.3852 C.3       1 <0>        -0.1161
      2 C2          1.2443   -4.8165    0.2793 C.ar      1 <0>        -0.0926
      3 C3          0.2175   -4.1889   -0.4021 C.ar      1 <0>        -0.1026
      4 C4          0.1927   -2.8116   -0.5007 C.ar      1 <0>        -0.1128
      5 C5          1.2004   -2.0566    0.0856 C.ar      1 <0>         0.1286
      6 C6          2.2333   -2.6904    0.7644 C.ar      1 <0>        -0.1303
      7 C7          2.2491   -4.0678    0.8641 C.ar      1 <0>        -0.1023
      8 N1          1.1783   -0.6620   -0.0122 N.am      1 <0>        -0.6427
      9 C8          0.0022   -0.0039    0.0040 C.2       1 <0>         0.6180
     10 O1         -1.0427   -0.6262    0.0190 O.2       1 <0>        -0.4921
     11 C9         -0.0177    1.4686    0.0036 C.2       1 <0>        -0.0206
     12 N2          0.9904    2.3364   -0.0115 N.2       1 <0>        -0.2167
     13 N3          0.7612    3.5778   -0.0094 N.2       1 <0>        -0.2617
     14 C10        -0.4678    4.0638    0.0074 C.2       1 <0>         0.0420
     15 S1         -1.4046    2.5985    0.0151 S.3       1 <0>         0.1896
     16 C11        -0.9313    5.4977    0.0126 C.3       1 <0>        -0.0320
     17 S2         -1.1407    6.0717   -1.6954 S.3       1 <0>         0.0850
     18 C12        -1.6780    7.7407   -1.5215 C.2       1 <0>         0.0309
     19 N4         -1.8886    8.4410   -0.4235 N.2       1 <0>        -0.2678
     20 N5         -2.3114    9.7469   -0.5154 N.2       1 <0>        -0.3726
     21 C13        -2.5042   10.2926   -1.7002 C.2       1 <0>         0.3554
     22 S3         -2.0754    8.9395   -2.7847 S.3       1 <0>         0.0147
     23 N6         -2.9238   11.5786   -2.0198 N.pl3     1 <0>        -0.7865
     24 H1          1.8185   -6.7347   -0.4589 H         1 <0>         0.0719
     25 H2          1.7555   -6.6106    1.3156 H         1 <0>         0.0673
     26 H3          0.2467   -6.7005    0.3756 H         1 <0>         0.0675
     27 H4         -0.5655   -4.7765   -0.8581 H         1 <0>         0.1283
     28 H5         -0.6096   -2.3221   -1.0327 H         1 <0>         0.1402
     29 H6          3.0209   -2.1065    1.2173 H         1 <0>         0.1294
     30 H7          3.0495   -4.5609    1.3956 H         1 <0>         0.1292
     31 H8          2.0093   -0.1681   -0.0918 H         1 <0>         0.4231
     32 H9         -1.8828    5.5701    0.5394 H         1 <0>         0.1355
     33 H10        -0.1893    6.1176    0.5158 H         1 <0>         0.1440
     34 H11        -3.1195   12.2144   -1.3139 H         1 <0>         0.4242
     35 H12        -3.0209   11.8402   -2.9488 H         1 <0>         0.4246
@<TRIPOS>BOND
     1    1    2 1
     2    1   24 1
     3    1   25 1
     4    1   26 1
     5    2    7 ar
     6    2    3 ar
     7    3    4 ar
     8    3   27 1
     9    4    5 ar
    10    4   28 1
    11    5    6 ar
    12    5    8 1
    13    6    7 ar
    14    6   29 1
    15    7   30 1
    16    8    9 am
    17    8   31 1
    18    9   10 2
    19    9   11 1
    20   11   15 1
    21   11   12 2
    22   12   13 1
    23   13   14 2
    24   14   15 1
    25   14   16 1
    26   16   17 1
    27   16   32 1
    28   16   33 1
    29   17   18 1
    30   18   22 1
    31   18   19 2
    32   19   20 1
    33   20   21 2
    34   21   22 1
    35   21   23 1
    36   23   34 1
    37   23   35 1
@<TRIPOS>MOLECULE
ZINC04740108
   45    47     0     0     0
SMALL
USER_CHARGES

@<TRIPOS>ATOM
      1 C1         -0.0187    1.5258    0.0104 C.3       1 <0>        -0.1510
      2 C2          0.0021   -0.0041    0.0020 C.3       1 <0>        -0.1152
      3 C3          0.7421   -0.5109    1.2415 C.3       1 <0>        -0.0447
      4 C4          0.7625   -2.0177    1.2333 C.2       1 <0>         0.1273
      5 C5         -0.1970   -2.8491    1.7951 C.2       1 <0>        -0.2556
      6 C6          0.1832   -4.1437    1.5755 C.2       1 <0>         0.2701
      7 N1          1.3431   -4.1170    0.8998 N.pl3     1 <0>        -0.4480
      8 H1          1.8510   -4.8895    0.6061 H         1 <0>         0.4458
      9 N2          1.6872   -2.7726    0.6889 N.2       1 <0>        -0.2630
     10 O1         -0.5479   -5.2038    2.0010 O.3       1 <0>        -0.2319
     11 C7         -1.8097   -4.9669    2.4136 C.2       1 <0>         0.4333
     12 C8         -2.2967   -3.7336    2.6748 C.2       1 <0>        -0.2520
     13 C9         -1.4602   -2.4865    2.5324 C.3       1 <0>         0.1316
     14 H2         -2.0129   -1.7356    1.9679 H         1 <0>         0.1040
     15 C10        -1.1155   -1.9465    3.8965 C.ar      1 <0>        -0.1397
     16 C11        -0.4174   -2.7321    4.7939 C.ar      1 <0>        -0.0237
     17 C12        -0.0999   -2.2399    6.0451 C.ar      1 <0>        -0.2429
     18 C13        -0.4817   -0.9546    6.4039 C.ar      1 <0>         0.1661
     19 C14        -1.1820   -0.1647    5.5056 C.ar      1 <0>        -0.2417
     20 C15        -1.4945   -0.6589    4.2484 C.ar      1 <0>         0.1751
     21 O2         -2.1758    0.1153    3.3633 O.3       1 <0>        -0.3059
     22 C16        -2.5337    1.4303    3.7930 C.3       1 <0>         0.0239
     23 O3         -0.1695   -0.4712    7.6350 O.3       1 <0>        -0.3166
     24 C17         0.5531   -1.3405    8.5093 C.3       1 <0>         0.0272
     25 C18        -3.6572   -3.6060    3.1031 C.1       1 <0>         0.2726
     26 N3         -4.7365   -3.5048    3.4428 N.1       1 <0>        -0.4396
     27 N4         -2.6486   -6.0410    2.5776 N.pl3     1 <0>        -0.8329
     28 H3          1.0039    1.9031    0.0027 H         1 <0>         0.0544
     29 H4         -0.5459    1.8868   -0.8726 H         1 <0>         0.0561
     30 H5         -0.5289    1.8773    0.9072 H         1 <0>         0.0566
     31 H6         -1.0205   -0.3814    0.0098 H         1 <0>         0.0678
     32 H7          0.5123   -0.3556   -0.8948 H         1 <0>         0.0638
     33 H8          1.7647   -0.1336    1.2338 H         1 <0>         0.0814
     34 H9          0.2319   -0.1594    2.1383 H         1 <0>         0.0899
     35 H10        -0.1198   -3.7326    4.5167 H         1 <0>         0.1223
     36 H11         0.4454   -2.8559    6.7448 H         1 <0>         0.1280
     37 H12        -1.4799    0.8357    5.7829 H         1 <0>         0.1369
     38 H13        -1.6315    1.9905    4.0383 H         1 <0>         0.0586
     39 H14        -3.0718    1.9398    2.9937 H         1 <0>         0.1024
     40 H15        -3.1709    1.3635    4.6749 H         1 <0>         0.0564
     41 H16         0.7370   -0.8327    9.4561 H         1 <0>         0.1009
     42 H17        -0.0311   -2.2431    8.6885 H         1 <0>         0.0566
     43 H18         1.5045   -1.6087    8.0500 H         1 <0>         0.0572
     44 H19        -2.3280   -6.9387    2.3976 H         1 <0>         0.4106
     45 H20        -3.5619   -5.9024    2.8734 H         1 <0>         0.4275
@<TRIPOS>BOND
     1    1    2 1
     2    1   28 1
     3    1   29 1
     4    1   30 1
     5    2    3 1
     6    2   31 1
     7    2   32 1
     8    3    4 1
     9    3   33 1
    10    3   34 1
    11    4    9 2
    12    4    5 1
    13    5   13 1
    14    5    6 2
    15    6    7 1
    16    6   10 1
    17    7    8 1
    18    7    9 1
    19   10   11 1
    20   11   12 2
    21   11   27 1
    22   12   13 1
    23   12   25 1
    24   13   14 1
    25   13   15 1
    26   15   20 ar
    27   15   16 ar
    28   16   17 ar
    29   16   35 1
    30   17   18 ar
    31   17   36 1
    32   18   19 ar
    33   18   23 1
    34   19   20 ar
    35   19   37 1
    36   20   21 1
    37   21   22 1
    38   22   38 1
    39   22   39 1
    40   22   40 1
    41   23   24 1
    42   24   41 1
    43   24   42 1
    44   24   43 1
    45   25   26 3
    46   27   44 1
    47   27   45 1
@<TRIPOS>MOLECULE
ZINC55008963
   32    33     0     0     0
SMALL
USER_CHARGES

@<TRIPOS>ATOM
      1 C1         -1.0627   -0.3036    2.4241 C.3       1 <0>        -0.1312
      2 C2         -0.4893   -0.8536    1.1436 C.2       1 <0>         0.2317
      3 C3         -1.2126   -0.7988   -0.0154 C.2       1 <0>        -0.2153
      4 C4         -0.6096   -1.3490   -1.2393 C.2       1 <0>         0.5646
      5 O1         -1.2141   -1.3229   -2.2954 O.2       1 <0>        -0.4932
      6 N1          0.6278   -1.8830   -1.1671 N.am      1 <0>        -0.6546
      7 H1          1.0419   -2.2504   -1.9636 H         1 <0>         0.4365
      8 C5          1.2897   -1.9080    0.0029 C.2       1 <0>         0.7024
      9 O2          2.4034   -2.3944    0.0406 O.2       1 <0>        -0.5335
     10 N2          0.7593   -1.4060    1.1297 N.am      1 <0>        -0.6284
     11 H2          1.2724   -1.4404    1.9521 H         1 <0>         0.4392
     12 C6         -2.5607   -0.2046   -0.0378 C.2       1 <0>         0.1668
     13 N3         -3.6067   -0.9630    0.0920 N.2       1 <0>        -0.1984
     14 N4         -4.8886   -0.3980    0.0706 N.pl3     1 <0>        -0.5571
     15 C7         -6.0082   -1.2098    0.2096 C.ar      1 <0>         0.4540
     16 C8         -7.2796   -0.6422    0.1817 C.ar      1 <0>        -0.1395
     17 C9         -8.3862   -1.4619    0.3207 C.ar      1 <0>        -0.0006
     18 C10        -8.1840   -2.8267    0.4836 C.ar      1 <0>        -0.1206
     19 C11        -6.8929   -3.3226    0.5019 C.ar      1 <0>         0.2345
     20 N5         -5.8563   -2.5168    0.3618 N.ar      1 <0>        -0.4721
     21 Cl1        -6.6323   -5.0268    0.7056 Cl        1 <0>         0.0077
     22 Cl2        -9.5378   -3.8986    0.6628 Cl        1 <0>        -0.0235
     23 Cl3        -7.4740    1.0705   -0.0241 Cl        1 <0>        -0.0346
     24 C12        -2.7257    1.2833   -0.2114 C.3       1 <0>        -0.1546
     25 H3         -0.3791   -0.5116    3.2472 H         1 <0>         0.0878
     26 H4         -1.1986    0.7736    2.3281 H         1 <0>         0.1033
     27 H5         -2.0251   -0.7749    2.6232 H         1 <0>         0.1024
     28 H6         -4.9947    0.5597   -0.0411 H         1 <0>         0.4044
     29 H7         -9.3843   -1.0498    0.3033 H         1 <0>         0.1700
     30 H8         -2.8961    1.5096   -1.2640 H         1 <0>         0.0909
     31 H9         -3.5774    1.6254    0.3763 H         1 <0>         0.0713
     32 H10        -1.8227    1.7909    0.1278 H         1 <0>         0.0895
@<TRIPOS>BOND
     1    1    2 1
     2    1   25 1
     3    1   26 1
     4    1   27 1
     5    2   10 1
     6    2    3 2
     7    3    4 1
     8    3   12 1
     9    4    5 2
    10    4    6 am
    11    6    7 1
    12    6    8 am
    13    8    9 2
    14    8   10 am
    15   10   11 1
    16   12   13 2
    17   12   24 1
    18   13   14 1
    19   14   15 1
    20   14   28 1
    21   15   20 ar
    22   15   16 ar
    23   16   17 ar
    24   16   23 1
    25   17   18 ar
    26   17   29 1
    27   18   19 ar
    28   18   22 1
    29   19   20 ar
    30   19   21 1
    31   24   30 1
    32   24   31 1
    33   24   32 1
@<TRIPOS>MOLECULE
ZINC05343216
   46    49     0     0     0
SMALL
USER_CHARGES

@<TRIPOS>ATOM
      1 C1         -1.3108   -1.7416   -2.2468 C.3       1 <0>        -0.1171
      2 C2         -0.6384   -1.3815   -0.9471 C.ar      1 <0>        -0.0908
      3 C3         -0.0247   -0.1489   -0.8068 C.ar      1 <0>        -0.0896
      4 C4          0.5948    0.1913    0.3809 C.ar      1 <0>        -0.1415
      5 C5          0.6045   -0.7021    1.4397 C.ar      1 <0>         0.1320
      6 C6         -0.0150   -1.9493    1.3016 C.ar      1 <0>        -0.0570
      7 C7         -0.6418   -2.2795    0.1004 C.ar      1 <0>        -0.0810
      8 C8         -0.0098   -2.9106    2.4261 C.2       1 <0>         0.1055
      9 C9          1.0731   -3.5444    2.9464 C.2       1 <0>        -0.1773
     10 C10         0.5828   -4.3546    3.9955 C.2       1 <0>        -0.0380
     11 N1         -0.7213   -4.1694    4.0459 N.2       1 <0>        -0.2017
     12 N2         -1.0919   -3.3287    3.1467 N.pl3     1 <0>        -0.3759
     13 H1         -2.0051   -3.0364    3.0001 H         1 <0>         0.4527
     14 C11         1.7285   -5.0643    4.5924 C.2       1 <0>         0.6073
     15 O1          1.6531   -5.8450    5.5212 O.2       1 <0>        -0.5129
     16 N3          2.8682   -4.7274    3.9648 N.am      1 <0>        -0.5923
     17 C12         2.5604   -3.7653    2.9003 C.3       1 <0>         0.2601
     18 H2          3.0839   -2.8267    3.0818 H         1 <0>         0.1060
     19 C13         2.9583   -4.3298    1.5609 C.ar      1 <0>        -0.0574
     20 C14         2.4200   -5.5280    1.1286 C.ar      1 <0>        -0.0619
     21 C15         2.7830   -6.0486   -0.0995 C.ar      1 <0>        -0.1095
     22 C16         3.6854   -5.3727   -0.8981 C.ar      1 <0>        -0.1353
     23 C17         4.2269   -4.1707   -0.4669 C.ar      1 <0>         0.1016
     24 C18         3.8562   -3.6473    0.7636 C.ar      1 <0>        -0.1175
     25 O2          5.1147   -3.5039   -1.2506 O.3       1 <0>        -0.5004
     26 C19         4.2021   -5.2378    4.2909 C.3       1 <0>         0.1422
     27 C20         4.4074   -6.5959    3.6168 C.3       1 <0>         0.0536
     28 O3          4.5074   -6.4155    2.2028 O.3       1 <0>        -0.5519
     29 O4          1.2134   -0.3689    2.6074 O.3       1 <0>        -0.4895
     30 H3         -2.3532   -1.4245   -2.2167 H         1 <0>         0.0735
     31 H4         -0.8021   -1.2403   -3.0702 H         1 <0>         0.0705
     32 H5         -1.2634   -2.8207   -2.3936 H         1 <0>         0.0687
     33 H6         -0.0296    0.5505   -1.6298 H         1 <0>         0.1312
     34 H7          1.0721    1.1546    0.4836 H         1 <0>         0.1355
     35 H8         -1.1256   -3.2386   -0.0113 H         1 <0>         0.1283
     36 H9          1.7149   -6.0582    1.7518 H         1 <0>         0.1076
     37 H10         2.3611   -6.9845   -0.4348 H         1 <0>         0.1200
     38 H11         3.9693   -5.7801   -1.8572 H         1 <0>         0.1220
     39 H12         4.2728   -2.7092    1.0995 H         1 <0>         0.1221
     40 H13         4.7059   -2.8739   -1.8597 H         1 <0>         0.3867
     41 H14         4.9566   -4.5370    3.9335 H         1 <0>         0.0965
     42 H15         4.2938   -5.3508    5.3711 H         1 <0>         0.1007
     43 H16         5.3241   -7.0521    3.9906 H         1 <0>         0.0587
     44 H17         3.5608   -7.2447    3.8414 H         1 <0>         0.0504
     45 H18         4.6388   -7.2370    1.7098 H         1 <0>         0.3729
     46 H19         0.6544    0.1385    3.2117 H         1 <0>         0.3922
@<TRIPOS>BOND
     1    1    2 1
     2    1   30 1
     3    1   31 1
     4    1   32 1
     5    2    7 ar
     6    2    3 ar
     7    3    4 ar
     8    3   33 1
     9    4    5 ar
    10    4   34 1
    11    5    6 ar
    12    5   29 1
    13    6    7 ar
    14    6    8 1
    15    7   35 1
    16    8   12 1
    17    8    9 2
    18    9   17 1
    19    9   10 1
    20   10   11 2
    21   10   14 1
    22   11   12 1
    23   12   13 1
    24   14   15 2
    25   14   16 am
    26   16   17 1
    27   16   26 1
    28   17   18 1
    29   17   19 1
    30   19   24 ar
    31   19   20 ar
    32   20   21 ar
    33   20   36 1
    34   21   22 ar
    35   21   37 1
    36   22   23 ar
    37   22   38 1
    38   23   24 ar
    39   23   25 1
    40   24   39 1
    41   25   40 1
    42   26   27 1
    43   26   41 1
    44   26   42 1
    45   27   28 1
    46   27   43 1
    47   27   44 1
    48   28   45 1
    49   29   46 1
@<TRIPOS>MOLECULE
ZINC65237738
   48    51     0     0     0
SMALL
USER_CHARGES

@<TRIPOS>ATOM
      1 C1         -0.0187    1.5258    0.0104 C.3       1 <0>        -0.1650
      2 C2          0.0021   -0.0041    0.0020 C.3       1 <0>         0.1433
      3 H1          0.5293   -0.3651    0.8851 H         1 <0>         0.0945
      4 C3         -1.4333   -0.5336    0.0129 C.3       1 <0>        -0.1205
      5 C4         -1.4133   -2.0590    0.1302 C.3       1 <0>        -0.0824
      6 C5         -2.8271   -2.5806    0.1409 C.ar      1 <0>        -0.0817
      7 C6         -3.5022   -2.7230    1.3388 C.ar      1 <0>        -0.1177
      8 C7         -4.7990   -3.2015    1.3486 C.ar      1 <0>        -0.1176
      9 C8         -5.4209   -3.5371    0.1605 C.ar      1 <0>        -0.1254
     10 C9         -4.7461   -3.3939   -1.0374 C.ar      1 <0>        -0.1182
     11 C10        -3.4508   -2.9114   -1.0476 C.ar      1 <0>        -0.1184
     12 N1          0.6878   -0.4765   -1.2033 N.am      1 <0>        -0.7126
     13 C11         2.0310   -0.5870   -1.2149 C.2       1 <0>         0.5971
     14 O1          2.6743   -0.2942   -0.2241 O.2       1 <0>        -0.4882
     15 C12         2.7159   -1.0589   -2.4188 C.2       1 <0>        -0.0034
     16 N2          2.1498   -1.3975   -3.5419 N.2       1 <0>        -0.1268
     17 N3          3.0879   -1.8260   -4.4899 N.pl3     1 <0>        -0.4171
     18 N4          4.3185   -1.9758   -3.8656 N.pl3     1 <0>        -0.4731
     19 C13         4.2052   -1.2343   -2.5844 C.3       1 <0>         0.1775
     20 H2          4.7161   -0.2725   -2.6305 H         1 <0>         0.1307
     21 C14         4.7783   -2.1276   -1.5141 C.2       1 <0>         0.5081
     22 O2          4.3948   -2.0189   -0.3685 O.2       1 <0>        -0.4690
     23 N5          5.7150   -3.0473   -1.8234 N.am      1 <0>        -0.6580
     24 C15         6.1920   -3.2224   -3.1272 C.ar      1 <0>         0.1136
     25 C16         5.4637   -2.6891   -4.2010 C.ar      1 <0>         0.1855
     26 C17         5.8985   -2.8660   -5.4962 C.ar      1 <0>        -0.1303
     27 C18         7.0631   -3.5766   -5.7372 C.ar      1 <0>        -0.1016
     28 C19         7.7840   -4.1048   -4.6825 C.ar      1 <0>        -0.1151
     29 C20         7.3594   -3.9197   -3.3806 C.ar      1 <0>        -0.1159
     30 H3          1.0039    1.9031    0.0027 H         1 <0>         0.0638
     31 H4         -0.5459    1.8868   -0.8726 H         1 <0>         0.0581
     32 H5         -0.5289    1.8773    0.9072 H         1 <0>         0.0684
     33 H6         -1.9701   -0.1109    0.8621 H         1 <0>         0.0841
     34 H7         -1.9334   -0.2470   -0.9122 H         1 <0>         0.0719
     35 H8         -0.8764   -2.4817   -0.7190 H         1 <0>         0.0722
     36 H9         -0.9132   -2.3457    1.0553 H         1 <0>         0.0751
     37 H10        -3.0163   -2.4608    2.2670 H         1 <0>         0.1216
     38 H11        -5.3263   -3.3135    2.2845 H         1 <0>         0.1216
     39 H12        -6.4339   -3.9116    0.1683 H         1 <0>         0.1207
     40 H13        -5.2319   -3.6564   -1.9656 H         1 <0>         0.1210
     41 H14        -2.9249   -2.7959   -1.9838 H         1 <0>         0.1199
     42 H15         0.1751   -0.7099   -1.9930 H         1 <0>         0.4037
     43 H16         2.9071   -1.9914   -5.4285 H         1 <0>         0.4606
     44 H17         6.0712   -3.6077   -1.1163 H         1 <0>         0.4142
     45 H18         5.3343   -2.4531   -6.3194 H         1 <0>         0.1295
     46 H19         7.4082   -3.7185   -6.7507 H         1 <0>         0.1331
     47 H20         8.6941   -4.6528   -4.8769 H         1 <0>         0.1329
     48 H21         7.9316   -4.3317   -2.5625 H         1 <0>         0.1352
@<TRIPOS>BOND
     1    1    2 1
     2    1   30 1
     3    1   31 1
     4    1   32 1
     5    2    3 1
     6    2    4 1
     7    2   12 1
     8    4    5 1
     9    4   33 1
    10    4   34 1
    11    5    6 1
    12    5   35 1
    13    5   36 1
    14    6   11 ar
    15    6    7 ar
    16    7    8 ar
    17    7   37 1
    18    8    9 ar
    19    8   38 1
    20    9   10 ar
    21    9   39 1
    22   10   11 ar
    23   10   40 1
    24   11   41 1
    25   12   13 am
    26   12   42 1
    27   13   14 2
    28   13   15 1
    29   15   19 1
    30   15   16 2
    31   16   17 1
    32   17   18 1
    33   17   43 1
    34   18   25 1
    35   18   19 1
    36   19   20 1
    37   19   21 1
    38   21   22 2
    39   21   23 am
    40   23   24 1
    41   23   44 1
    42   24   29 ar
    43   24   25 ar
    44   25   26 ar
    45   26   27 ar
    46   26   45 1
    47   27   28 ar
    48   27   46 1
    49   28   29 ar
    50   28   47 1
    51   29   48 1
@<TRIPOS>MOLECULE
ZINC09331515
   57    62     0     0     0
SMALL
USER_CHARGES
chloro-(2-methoxy-5-nitro-phenyl)-methyl-BLAHtrione
@<TRIPOS>ATOM
      1 C1          5.5108   -1.3285   -0.0502 C.3       1 <0>        -0.1230
      2 C2          4.0315   -1.0416   -0.0365 C.ar      1 <0>        -0.0688
      3 C3          3.5786    0.2662   -0.0276 C.ar      1 <0>        -0.0505
      4 C4          2.2268    0.5275   -0.0149 C.ar      1 <0>        -0.1733
      5 C5          1.3030   -0.5131   -0.0115 C.ar      1 <0>         0.1709
      6 C6          1.7670   -1.8273   -0.0214 C.ar      1 <0>        -0.0409
      7 C7          3.1235   -2.0842   -0.0334 C.ar      1 <0>        -0.0423
      8 Cl1         0.6363   -3.1446   -0.0180 Cl        1 <0>        -0.0271
      9 N1          0.0021   -0.0041    0.0020 N.am      1 <0>        -0.6270
     10 C8         -0.0162    1.3426    0.0094 C.2       1 <0>         0.5254
     11 O1         -0.9991    2.0531    0.0182 O.2       1 <0>        -0.4417
     12 C9          1.4191    1.7951   -0.0019 C.3       1 <0>         0.0902
     13 C10         1.7435    2.6528    1.2264 C.3       1 <0>        -0.1115
     14 H1          2.7147    2.4127    1.6591 H         1 <0>         0.1829
     15 C11         1.6353    4.1091    0.7235 C.3       1 <0>        -0.1356
     16 H2          2.5541    4.6685    0.8992 H         1 <0>         0.1777
     17 C12         1.2852    4.0057   -0.7724 C.3       1 <0>         0.0355
     18 H3          0.2247    4.1784   -0.9557 H         1 <0>         0.1693
     19 C13         3.1747    2.7338   -1.3754 C.3       1 <0>        -0.0153
     20 C14         3.4026    4.1233   -2.0039 C.3       1 <0>        -0.1427
     21 C15         2.1739    4.9581   -1.5928 C.3       1 <0>        -0.1335
     22 C16         0.4557    4.6800    1.4774 C.2       1 <0>         0.5390
     23 O2          0.0455    5.8166    1.3797 O.2       1 <0>        -0.4244
     24 N2         -0.0650    3.7354    2.2692 N.am      1 <0>        -0.4988
     25 C17         0.5584    2.5531    2.2071 C.2       1 <0>         0.5285
     26 O3          0.2509    1.5650    2.8387 O.2       1 <0>        -0.4243
     27 C18        -1.1746    3.9659    3.0972 C.ar      1 <0>         0.0597
     28 C19        -2.4572    3.7408    2.6197 C.ar      1 <0>         0.0112
     29 C20        -3.5482    3.9679    3.4369 C.ar      1 <0>        -0.0747
     30 C21        -3.3650    4.4197    4.7309 C.ar      1 <0>         0.0129
     31 C22        -2.0898    4.6464    5.2137 C.ar      1 <0>        -0.1979
     32 C23        -0.9903    4.4159    4.4022 C.ar      1 <0>         0.2060
     33 O4          0.2648    4.6333    4.8772 O.3       1 <0>        -0.3024
     34 C24         0.3776    5.0945    6.2250 C.3       1 <0>         0.0157
     35 N3         -4.9163    3.7276    2.9255 N.pl3     1 <0>         0.0305
     36 O5         -5.0794    3.3300    1.7858 O.2       1 <0>        -0.1549
     37 O6         -5.8790    3.9273    3.6445 O.3       1 <0>        -0.1423
     38 H4          5.8589   -1.3932   -1.0811 H         1 <0>         0.0867
     39 H5          6.0413   -0.5261    0.4626 H         1 <0>         0.0792
     40 H6          5.7024   -2.2735    0.4580 H         1 <0>         0.0830
     41 H7          4.2860    1.0823   -0.0306 H         1 <0>         0.1489
     42 H8          3.4771   -3.1047   -0.0407 H         1 <0>         0.1607
     43 H9         -0.7953   -0.5563    0.0059 H         1 <0>         0.4406
     44 H10         3.6903    2.6630   -0.4177 H         1 <0>         0.1331
     45 H11         3.5212    1.9518   -2.0510 H         1 <0>         0.1536
     46 H12         3.4591    4.0427   -3.0895 H         1 <0>         0.1096
     47 H13         4.3141    4.5721   -1.6092 H         1 <0>         0.1207
     48 H14         1.6397    5.3038   -2.4778 H         1 <0>         0.1148
     49 H15         2.4818    5.8066   -0.9819 H         1 <0>         0.1230
     50 H16        -2.6032    3.3876    1.6096 H         1 <0>         0.1681
     51 H17        -4.2205    4.5963    5.3659 H         1 <0>         0.1714
     52 H18        -1.9501    4.9996    6.2247 H         1 <0>         0.1684
     53 H19         1.4297    5.2273    6.4768 H         1 <0>         0.1164
     54 H20        -0.1436    6.0463    6.3281 H         1 <0>         0.0718
     55 H21        -0.0675    4.3618    6.8981 H         1 <0>         0.0710
     56 N4          1.7218    2.6779   -1.1387 N.4       1 <0>        -0.3646
     57 H22         1.2369    2.3517   -1.9829 H         1 <0>         0.4410
@<TRIPOS>BOND
     1    1    2 1
     2    1   38 1
     3    1   39 1
     4    1   40 1
     5    2    7 ar
     6    2    3 ar
     7    3    4 ar
     8    3   41 1
     9    4   12 1
    10    4    5 ar
    11    5    6 ar
    12    5    9 1
    13    6    7 ar
    14    6    8 1
    15    7   42 1
    16    9   10 am
    17    9   43 1
    18   10   11 2
    19   10   12 1
    20   12   13 1
    21   12   56 1
    22   13   14 1
    23   13   25 1
    24   13   15 1
    25   15   16 1
    26   15   17 1
    27   15   22 1
    28   17   18 1
    29   17   21 1
    30   17   56 1
    31   19   20 1
    32   19   44 1
    33   19   45 1
    34   19   56 1
    35   20   21 1
    36   20   46 1
    37   20   47 1
    38   21   48 1
    39   21   49 1
    40   22   23 2
    41   22   24 am
    42   24   25 am
    43   24   27 1
    44   25   26 2
    45   27   32 ar
    46   27   28 ar
    47   28   29 ar
    48   28   50 1
    49   29   30 ar
    50   29   35 1
    51   30   31 ar
    52   30   51 1
    53   31   32 ar
    54   31   52 1
    55   32   33 1
    56   33   34 1
    57   34   53 1
    58   34   54 1
    59   34   55 1
    60   35   36 2
    61   35   37 1
    62   56   57 1
@<TRIPOS>MOLECULE
ZINC09108782
   57    62     0     0     0
SMALL
USER_CHARGES
(3aR,4R,8aR,8bS)-5'-chloro-2-(2-methoxy-5-nitro-phenyl)-7'-methyl-spiro[3a,6,7,8,8a,8b-hexahydropyrrolo[3,4-f]pyrrolizine-4,3'-indoline]-1,2',3-trione
@<TRIPOS>ATOM
      1 C1          1.2116   -2.1912   -0.0200 C.3       1 <0>        -0.1286
      2 C2          1.2024   -0.6842   -0.0117 C.ar      1 <0>        -0.0646
      3 C3          0.0021   -0.0041    0.0020 C.ar      1 <0>        -0.0422
      4 C4         -0.0167    1.3794    0.0096 C.ar      1 <0>        -0.0426
      5 C5          1.1756    2.0843    0.0020 C.ar      1 <0>        -0.0516
      6 C6          2.3747    1.4086   -0.0117 C.ar      1 <0>        -0.1753
      7 C7          2.4054    0.0171   -0.0175 C.ar      1 <0>         0.1724
      8 N1          3.7267   -0.4366   -0.0282 N.am      1 <0>        -0.6274
      9 C8          4.6121    0.5783   -0.0283 C.2       1 <0>         0.5252
     10 O1          5.8213    0.4837   -0.0323 O.2       1 <0>        -0.4428
     11 C9          3.8110    1.8522   -0.0221 C.3       1 <0>         0.0908
     12 C10         4.1218    2.7113   -1.2532 C.3       1 <0>        -0.1124
     13 H1          3.2270    3.1540   -1.6909 H         1 <0>         0.1827
     14 C11         5.1443    3.7545   -0.7515 C.3       1 <0>        -0.1358
     15 H2          4.8065    4.7746   -0.9338 H         1 <0>         0.1777
     16 C12         5.3386    3.4570    0.7466 C.3       1 <0>         0.0356
     17 H3          6.2597    2.9059    0.9363 H         1 <0>         0.1694
     18 C13         3.0728    3.7064    1.3429 C.3       1 <0>        -0.0164
     19 C14         3.7930    4.9180    1.9679 C.3       1 <0>        -0.1424
     20 C15         5.2710    4.7620    1.5604 C.3       1 <0>        -0.1336
     21 C16         6.4164    3.4227   -1.4984 C.2       1 <0>         0.5391
     22 O2          7.4642    4.0244   -1.3994 O.2       1 <0>        -0.4241
     23 N2          6.2055    2.3613   -2.2853 N.am      1 <0>        -0.4988
     24 C17         4.9647    1.8642   -2.2268 C.2       1 <0>         0.5295
     25 O3          4.5623    0.9091   -2.8558 O.2       1 <0>        -0.4252
     26 C18         7.2045    1.8140   -3.1052 C.ar      1 <0>         0.0597
     27 C19         8.0337    0.8147   -2.6180 C.ar      1 <0>         0.0113
     28 C20         9.0163    0.2769   -3.4272 C.ar      1 <0>        -0.0749
     29 C21         9.1758    0.7325   -4.7231 C.ar      1 <0>         0.0129
     30 C22         8.3532    1.7282   -5.2155 C.ar      1 <0>        -0.1979
     31 C23         7.3620    2.2689   -4.4120 C.ar      1 <0>         0.2060
     32 O4          6.5487    3.2447   -4.8965 O.3       1 <0>        -0.3023
     33 C24         6.7682    3.6616   -6.2456 C.3       1 <0>         0.0157
     34 N3          9.9007   -0.7893   -2.9055 N.pl3     1 <0>         0.0306
     35 O5          9.7619   -1.1915   -1.7642 O.2       1 <0>        -0.1552
     36 O6         10.7673   -1.2644   -3.6174 O.3       1 <0>        -0.1423
     37 Cl1        -1.5303    2.2294    0.0214 Cl        1 <0>        -0.0253
     38 H4          1.2052   -2.5489   -1.0496 H         1 <0>         0.0900
     39 H5          2.1080   -2.5518    0.4844 H         1 <0>         0.0720
     40 H6          0.3282   -2.5628    0.4992 H         1 <0>         0.0899
     41 H7         -0.9273   -0.5542    0.0065 H         1 <0>         0.1609
     42 H8          1.1644    3.1642    0.0072 H         1 <0>         0.1518
     43 H9          3.9772   -1.3736   -0.0343 H         1 <0>         0.4397
     44 H10         2.6348    3.9807    0.3832 H         1 <0>         0.1327
     45 H11         2.3023    3.3349    2.0185 H         1 <0>         0.1537
     46 H12         3.6956    4.8975    3.0533 H         1 <0>         0.1099
     47 H13         3.3864    5.8471    1.5683 H         1 <0>         0.1209
     48 H14         5.9006    4.6865    2.4470 H         1 <0>         0.1150
     49 H15         5.5838    5.6062    0.9458 H         1 <0>         0.1230
     50 H16         7.9112    0.4566   -1.6065 H         1 <0>         0.1681
     51 H17         9.9453    0.3096   -5.3519 H         1 <0>         0.1714
     52 H18         8.4805    2.0822   -6.2279 H         1 <0>         0.1684
     53 H19         7.7821    4.0489   -6.3458 H         1 <0>         0.0719
     54 H20         6.6363    2.8113   -6.9147 H         1 <0>         0.0711
     55 H21         6.0536    4.4426   -6.5054 H         1 <0>         0.1165
     56 N4          4.1472    2.7256    1.1123 N.4       1 <0>        -0.3645
     57 H22         4.3051    2.1664    1.9588 H         1 <0>         0.4409
@<TRIPOS>BOND
     1    1    2 1
     2    1   38 1
     3    1   39 1
     4    1   40 1
     5    2    7 ar
     6    2    3 ar
     7    3    4 ar
     8    3   41 1
     9    4    5 ar
    10    4   37 1
    11    5    6 ar
    12    5   42 1
    13    6   11 1
    14    6    7 ar
    15    7    8 1
    16    8    9 am
    17    8   43 1
    18    9   10 2
    19    9   11 1
    20   11   12 1
    21   11   56 1
    22   12   13 1
    23   12   24 1
    24   12   14 1
    25   14   15 1
    26   14   16 1
    27   14   21 1
    28   16   17 1
    29   16   20 1
    30   16   56 1
    31   18   19 1
    32   18   44 1
    33   18   45 1
    34   18   56 1
    35   19   20 1
    36   19   46 1
    37   19   47 1
    38   20   48 1
    39   20   49 1
    40   21   22 2
    41   21   23 am
    42   23   24 am
    43   23   26 1
    44   24   25 2
    45   26   31 ar
    46   26   27 ar
    47   27   28 ar
    48   27   50 1
    49   28   29 ar
    50   28   34 1
    51   29   30 ar
    52   29   51 1
    53   30   31 ar
    54   30   52 1
    55   31   32 1
    56   32   33 1
    57   33   53 1
    58   33   54 1
    59   33   55 1
    60   34   35 2
    61   34   36 1
    62   56   57 1
@<TRIPOS>MOLECULE
ZINC34748727
   78    82     0     0     0
SMALL
USER_CHARGES

@<TRIPOS>ATOM
      1 C1          0.0012    1.4681   -0.0363 C.3       1 <0>        -0.1078
      2 C2          0.0734   -0.0371   -0.0208 C.2       1 <0>        -0.0654
      3 C3          0.1631   -0.7238   -1.1693 C.2       1 <0>        -0.1487
      4 S1          0.2189   -2.4229   -0.6326 S.3       1 <0>         0.1542
      5 C4          0.1200   -2.1616    1.1198 C.2       1 <0>         0.0903
      6 C5          0.0525   -0.7608    1.2387 C.2       1 <0>        -0.2208
      7 C6         -0.0317   -0.2533    2.5737 C.2       1 <0>         0.5645
      8 O1         -0.0991    0.9472    2.7748 O.2       1 <0>        -0.5052
      9 N1         -0.0360   -1.1185    3.6043 N.am      1 <0>        -0.5080
     10 C7          0.0386   -2.4645    3.3988 C.2       1 <0>         0.6235
     11 N2          0.1064   -2.9600    2.1807 N.2       1 <0>        -0.4723
     12 N3          0.0320   -3.3151    4.4762 N.pl3     1 <0>        -0.6537
     13 C8         -1.2297   -3.8555    5.0054 C.3       1 <0>         0.1216
     14 C9         -1.0902   -5.3759    5.1356 C.3       1 <0>        -0.0205
     15 N4          0.0919   -5.6902    5.9480 N.4       1 <0>        -0.3686
     16 C10         1.3072   -5.2396    5.2580 C.3       1 <0>        -0.0302
     17 C11         1.2869   -3.7170    5.1304 C.3       1 <0>         0.1208
     18 C12         0.1633   -7.1414    6.1645 C.3       1 <0>        -0.0323
     19 C13         1.3039   -7.4544    7.0983 C.2       1 <0>         0.5015
     20 O2          1.9898   -6.5570    7.5401 O.2       1 <0>        -0.5320
     21 N5          1.5618   -8.7317    7.4426 N.am      1 <0>        -0.5831
     22 C14         0.7437   -9.8301    6.9108 C.3       1 <0>         0.0941
     23 C15         1.6687  -10.8646    6.2621 C.3       1 <0>        -0.1379
     24 C16         2.7274  -11.3035    7.2763 C.3       1 <0>        -0.1273
     25 C17         3.5700  -10.0954    7.6919 C.3       1 <0>        -0.1376
     26 C18         2.6703   -9.0527    8.3520 C.3       1 <0>         0.1068
     27 C19        -0.1221   -0.6044    4.9735 C.3       1 <0>         0.0707
     28 C20        -1.5690   -0.4090    5.3467 C.2       1 <0>         0.5030
     29 O3         -2.4423   -0.6731    4.5476 O.2       1 <0>        -0.5219
     30 N6         -1.8925    0.0593    6.5684 N.am      1 <0>        -0.7200
     31 C21        -3.2991    0.2492    6.9311 C.3       1 <0>         0.1442
     32 C22        -3.8759   -1.0712    7.4457 C.3       1 <0>        -0.1222
     33 C23        -5.3449   -0.8727    7.8246 C.3       1 <0>        -0.1190
     34 C24        -5.4501    0.1908    8.9194 C.3       1 <0>        -0.1234
     35 C25        -4.8733    1.5112    8.4049 C.3       1 <0>        -0.1187
     36 C26        -3.4043    1.3128    8.0260 C.3       1 <0>        -0.1272
     37 C27         0.2060   -0.1874   -2.5770 C.3       1 <0>        -0.0735
     38 H1          1.0093    1.8806    0.0054 H         1 <0>         0.0748
     39 H2         -0.4891    1.7989   -0.9519 H         1 <0>         0.0713
     40 H3         -0.5687    1.8134    0.8262 H         1 <0>         0.0826
     41 H4         -1.4321   -3.4211    5.9844 H         1 <0>         0.0903
     42 H5         -2.0448   -3.6198    4.3212 H         1 <0>         0.1273
     43 H6         -1.9800   -5.7827    5.6160 H         1 <0>         0.1452
     44 H7         -0.9781   -5.8167    4.1451 H         1 <0>         0.1425
     45 H8          2.1839   -5.5460    5.8286 H         1 <0>         0.1595
     46 H9          1.3467   -5.6846    4.2637 H         1 <0>         0.1359
     47 H10         2.1348   -3.3896    4.5287 H         1 <0>         0.1239
     48 H11         1.3428   -3.2683    6.1222 H         1 <0>         0.0949
     49 H12        -0.7716   -7.4898    6.6033 H         1 <0>         0.1610
     50 H13         0.3263   -7.6434    5.2108 H         1 <0>         0.1600
     51 H14         0.1862  -10.2968    7.7230 H         1 <0>         0.0892
     52 H15         0.0503   -9.4414    6.1651 H         1 <0>         0.0837
     53 H16         1.0842  -11.7297    5.9490 H         1 <0>         0.0874
     54 H17         2.1577  -10.4220    5.3943 H         1 <0>         0.0705
     55 H18         2.2370  -11.7235    8.1545 H         1 <0>         0.0708
     56 H19         3.3720  -12.0578    6.8251 H         1 <0>         0.0761
     57 H20         4.3387  -10.4129    8.3964 H         1 <0>         0.0873
     58 H21         4.0410   -9.6599    6.8106 H         1 <0>         0.0692
     59 H22         3.2477   -8.1511    8.5568 H         1 <0>         0.1006
     60 H23         2.2734   -9.4545    9.2843 H         1 <0>         0.0824
     61 H24         0.3368   -1.3172    5.6587 H         1 <0>         0.1208
     62 H25         0.4016    0.3494    5.0370 H         1 <0>         0.1323
     63 H26        -1.1940    0.2705    7.2074 H         1 <0>         0.4022
     64 H27        -3.8598    0.5736    6.0545 H         1 <0>         0.0905
     65 H28        -3.8010   -1.8288    6.6657 H         1 <0>         0.0605
     66 H29        -3.3152   -1.3955    8.3223 H         1 <0>         0.0629
     67 H30        -5.9057   -0.5484    6.9479 H         1 <0>         0.0659
     68 H31        -5.7559   -1.8134    8.1911 H         1 <0>         0.0661
     69 H32        -6.4966    0.3322    9.1893 H         1 <0>         0.0679
     70 H33        -4.8894   -0.1335    9.7961 H         1 <0>         0.0634
     71 H34        -5.4340    1.8355    7.5282 H         1 <0>         0.0669
     72 H35        -4.9482    2.2689    9.1849 H         1 <0>         0.0719
     73 H36        -2.8435    0.9884    8.9027 H         1 <0>         0.0694
     74 H37        -2.9933    2.2535    7.6594 H         1 <0>         0.0715
     75 H38         1.2416   -0.0082   -2.8661 H         1 <0>         0.0861
     76 H39        -0.2403   -0.9136   -3.2563 H         1 <0>         0.0794
     77 H40        -0.3521    0.7475   -2.6267 H         1 <0>         0.0891
     78 H41         0.0198   -5.2228    6.8394 H         1 <0>         0.4284
@<TRIPOS>BOND
     1    1    2 1
     2    1   38 1
     3    1   39 1
     4    1   40 1
     5    2    6 1
     6    2    3 2
     7    3    4 1
     8    3   37 1
     9    4    5 1
    10    5   11 1
    11    5    6 2
    12    6    7 1
    13    7    8 2
    14    7    9 am
    15    9   10 1
    16    9   27 1
    17   10   11 2
    18   10   12 1
    19   12   17 1
    20   12   13 1
    21   13   14 1
    22   13   41 1
    23   13   42 1
    24   14   15 1
    25   14   43 1
    26   14   44 1
    27   15   16 1
    28   15   18 1
    29   15   78 1
    30   16   17 1
    31   16   45 1
    32   16   46 1
    33   17   47 1
    34   17   48 1
    35   18   19 1
    36   18   49 1
    37   18   50 1
    38   19   20 2
    39   19   21 am
    40   21   26 1
    41   21   22 1
    42   22   23 1
    43   22   51 1
    44   22   52 1
    45   23   24 1
    46   23   53 1
    47   23   54 1
    48   24   25 1
    49   24   55 1
    50   24   56 1
    51   25   26 1
    52   25   57 1
    53   25   58 1
    54   26   59 1
    55   26   60 1
    56   27   28 1
    57   27   61 1
    58   27   62 1
    59   28   29 2
    60   28   30 am
    61   30   31 1
    62   30   63 1
    63   31   36 1
    64   31   32 1
    65   31   64 1
    66   32   33 1
    67   32   65 1
    68   32   66 1
    69   33   34 1
    70   33   67 1
    71   33   68 1
    72   34   35 1
    73   34   69 1
    74   34   70 1
    75   35   36 1
    76   35   71 1
    77   35   72 1
    78   36   73 1
    79   36   74 1
    80   37   75 1
    81   37   76 1
    82   37   77 1
@<TRIPOS>MOLECULE
ZINC20205685
   60    64     0     0     0
SMALL
USER_CHARGES

@<TRIPOS>ATOM
      1 C1          0.1010    2.3913   -1.6691 C.3       1 <0>        -0.1165
      2 C2          0.0336    0.9093   -1.4040 C.ar      1 <0>        -0.1149
      3 C3          0.1837    0.0140   -2.4471 C.ar      1 <0>        -0.0769
      4 C4          0.1220   -1.3448   -2.2068 C.ar      1 <0>        -0.2090
      5 C5         -0.0905   -1.8111   -0.9173 C.ar      1 <0>         0.1199
      6 C6         -0.2403   -0.9110    0.1273 C.ar      1 <0>        -0.1431
      7 C7         -0.1725    0.4472   -0.1175 C.ar      1 <0>        -0.0434
      8 C8         -0.3296    1.4256    1.0179 C.3       1 <0>        -0.1214
      9 O1         -0.1521   -3.1475   -0.6784 O.3       1 <0>        -0.3096
     10 C9          0.0103   -4.0156   -1.8018 C.3       1 <0>         0.0458
     11 C10        -0.0887   -5.4710   -1.3403 C.3       1 <0>         0.0926
     12 N1          0.0778   -6.3609   -2.4920 N.pl3     1 <0>        -0.4265
     13 C11        -0.9363   -6.8789   -3.2126 C.2       1 <0>         0.2173
     14 C12        -0.4277   -7.6723   -4.2230 C.2       1 <0>        -0.2456
     15 C13         1.0417   -7.6188   -4.0869 C.ar      1 <0>        -0.0512
     16 C14         1.2952   -6.7789   -2.9912 C.ar      1 <0>         0.0708
     17 C15         2.6109   -6.5275   -2.6161 C.ar      1 <0>        -0.0985
     18 C16         3.6485   -7.0986   -3.3211 C.ar      1 <0>        -0.0939
     19 C17         3.3955   -7.9250   -4.4055 C.ar      1 <0>        -0.1044
     20 C18         2.0980   -8.1933   -4.7868 C.ar      1 <0>        -0.0884
     21 C19        -1.1653   -8.3909   -5.1913 C.2       1 <0>         0.2314
     22 C20        -2.3446   -9.0193   -4.8358 C.2       1 <0>        -0.3614
     23 C21        -3.2441   -9.6346   -5.8508 C.cat     1 <0>         0.6064
     24 N2         -2.8130  -10.1842   -6.9555 N.pl3     1 <0>        -0.6778
     25 N3         -4.6071   -9.5645   -5.4998 N.pl3     1 <0>        -0.4944
     26 C22        -4.9349   -9.4284   -4.1670 C.2       1 <0>         0.2808
     27 N4         -4.0987   -9.2538   -3.1692 N.2       1 <0>        -0.4871
     28 C23        -2.7802   -9.1232   -3.4238 C.2       1 <0>         0.5470
     29 O2         -1.9662   -9.0876   -2.5147 O.2       1 <0>        -0.4102
     30 S1         -6.5993   -9.5206   -4.1726 S.3       1 <0>         0.5109
     31 N5         -6.8609   -9.6181   -5.8255 N.2       1 <0>        -0.3054
     32 C24        -5.6690   -9.6257   -6.3372 C.2       1 <0>        -0.2554
     33 S2         -5.4375   -9.7130   -8.0818 S.o2      1 <0>         2.4692
     34 O3         -6.6668   -9.2619   -8.6337 O.2       1 <0>        -0.8353
     35 O4         -4.2309   -9.0024   -8.3234 O.2       1 <0>        -0.9044
     36 C25        -5.2047  -11.4773   -8.4334 C.3       1 <0>        -0.6491
     37 H1          1.1328    2.7304   -1.5769 H         1 <0>         0.0719
     38 H2         -0.2604    2.5969   -2.6767 H         1 <0>         0.0667
     39 H3         -0.5208    2.9185   -0.9455 H         1 <0>         0.0709
     40 H4          0.3491    0.3774   -3.4506 H         1 <0>         0.1269
     41 H5          0.2386   -2.0437   -3.0219 H         1 <0>         0.1225
     42 H6         -0.4058   -1.2715    1.1318 H         1 <0>         0.1331
     43 H7         -1.3830    1.6797    1.1354 H         1 <0>         0.0769
     44 H8          0.0407    0.9757    1.9391 H         1 <0>         0.0711
     45 H9          0.2401    2.3291    0.8003 H         1 <0>         0.0749
     46 H10        -0.7714   -3.8126   -2.5338 H         1 <0>         0.0698
     47 H11         0.9864   -3.8439   -2.2555 H         1 <0>         0.0738
     48 H12         0.6930   -5.6740   -0.6083 H         1 <0>         0.1190
     49 H13        -1.0648   -5.6427   -0.8865 H         1 <0>         0.1189
     50 H14        -1.9855   -6.7014   -3.0283 H         1 <0>         0.1845
     51 H15         2.8192   -5.8851   -1.7733 H         1 <0>         0.1321
     52 H16         4.6684   -6.9002   -3.0263 H         1 <0>         0.1400
     53 H17         4.2179   -8.3660   -4.9491 H         1 <0>         0.1378
     54 H18         1.9029   -8.8362   -5.6324 H         1 <0>         0.1308
     55 H19        -0.8078   -8.4491   -6.2087 H         1 <0>         0.1579
     56 H20        -1.8752  -10.1201   -7.1952 H         1 <0>         0.4632
     57 H21        -6.1398  -12.0092   -8.2581 H         1 <0>         0.1730
     58 H22        -4.9041  -11.6039   -9.4735 H         1 <0>         0.1766
     59 H23        -4.4303  -11.8789   -7.7799 H         1 <0>         0.1277
     60 H24        -3.4307  -10.6563   -7.5356 H         1 <0>         0.4118
@<TRIPOS>BOND
     1    1    2 1
     2    1   37 1
     3    1   38 1
     4    1   39 1
     5    2    7 ar
     6    2    3 ar
     7    3    4 ar
     8    3   40 1
     9    4    5 ar
    10    4   41 1
    11    5    6 ar
    12    5    9 1
    13    6    7 ar
    14    6   42 1
    15    7    8 1
    16    8   43 1
    17    8   44 1
    18    8   45 1
    19    9   10 1
    20   10   11 1
    21   10   46 1
    22   10   47 1
    23   11   12 1
    24   11   48 1
    25   11   49 1
    26   12   16 1
    27   12   13 1
    28   13   14 2
    29   13   50 1
    30   14   15 1
    31   14   21 1
    32   15   20 ar
    33   15   16 ar
    34   16   17 ar
    35   17   18 ar
    36   17   51 1
    37   18   19 ar
    38   18   52 1
    39   19   20 ar
    40   19   53 1
    41   20   54 1
    42   21   22 2
    43   21   55 1
    44   22   28 1
    45   22   23 1
    46   23   24 2
    47   23   25 1
    48   24   56 1
    49   24   60 1
    50   25   32 1
    51   25   26 1
    52   26   27 2
    53   26   30 1
    54   27   28 1
    55   28   29 2
    56   30   31 1
    57   31   32 2
    58   32   33 1
    59   33   34 2
    60   33   35 2
    61   33   36 1
    62   36   57 1
    63   36   58 1
    64   36   59 1
@<TRIPOS>MOLECULE
ZINC63204526
   64    68     0     0     0
SMALL
USER_CHARGES

@<TRIPOS>ATOM
      1 C1         -0.0173    1.4248    0.0099 C.3       1 <0>         0.0224
      2 O1          0.0021   -0.0041    0.0020 O.3       1 <0>        -0.3107
      3 C2         -1.2003   -0.6375    0.0101 C.ar      1 <0>         0.1514
      4 C3         -2.3746    0.1011    0.0195 C.ar      1 <0>        -0.2015
      5 C4         -3.5956   -0.5451    0.0272 C.ar      1 <0>        -0.0514
      6 C5         -3.6478   -1.9268    0.0260 C.ar      1 <0>        -0.1466
      7 C6         -2.4788   -2.6651    0.0172 C.ar      1 <0>        -0.0819
      8 C7         -1.2554   -2.0237    0.0032 C.ar      1 <0>        -0.1442
      9 C8         -4.9811   -2.6292    0.0350 C.3       1 <0>        -0.0092
     10 H1         -5.7815   -1.8893    0.0416 H         1 <0>         0.1263
     11 C9         -5.1053   -3.5036   -1.2144 C.3       1 <0>         0.1259
     12 N1         -6.4457   -4.0925   -1.2670 N.am      1 <0>        -0.7397
     13 C10        -6.7851   -4.9051   -2.2873 C.2       1 <0>         0.5074
     14 O2         -5.9810   -5.1487   -3.1618 O.2       1 <0>        -0.5109
     15 C11        -8.1639   -5.5109   -2.3414 C.3       1 <0>         0.0926
     16 N2         -8.2828   -6.3482   -3.5376 N.am      1 <0>        -0.5528
     17 C12        -8.7133   -5.7983   -4.6851 C.2       1 <0>         0.5353
     18 O3         -8.9189   -4.6043   -4.7296 O.2       1 <0>        -0.4754
     19 C13        -8.9459   -6.6327   -5.9188 C.3       1 <0>        -0.0121
     20 H2         -9.9526   -7.0497   -5.8925 H         1 <0>         0.1637
     21 C14        -7.9202   -7.7707   -5.9531 C.3       1 <0>         0.1327
     22 H3         -6.9400   -7.4130   -6.2684 H         1 <0>         0.1111
     23 C15        -8.4369   -8.8966   -6.8803 C.3       1 <0>        -0.1301
     24 C16        -7.7503  -10.1463   -6.2666 C.3       1 <0>        -0.1312
     25 C17        -7.7534   -9.8368   -4.7535 C.3       1 <0>         0.1258
     26 N3         -7.8691   -8.3702   -4.6023 N.am      1 <0>        -0.6230
     27 C18        -7.9526   -7.6537   -3.4653 C.2       1 <0>         0.7359
     28 O4         -7.7378   -8.1774   -2.3897 O.2       1 <0>        -0.5430
     29 C19        -8.7921   -5.7925   -7.1177 C.1       1 <0>         0.2092
     30 N4         -8.6734   -5.1442   -8.0429 N.1       1 <0>        -0.3705
     31 C20        -5.0855   -3.4932    1.2653 C.2       1 <0>         0.0748
     32 C21        -6.0133   -3.4038    2.2454 C.ar      1 <0>        -0.1690
     33 C22        -7.1584   -2.5091    2.4520 C.ar      1 <0>        -0.0157
     34 C23        -7.9228   -2.6664    3.5565 C.ar      1 <0>        -0.1479
     35 C24        -7.6493   -3.6598    4.5068 C.ar      1 <0>         0.0529
     36 C25        -6.6155   -4.5193    4.3864 C.ar      1 <0>        -0.2071
     37 C26        -5.7461   -4.4450    3.2633 C.ar      1 <0>         0.3293
     38 N5         -4.6941   -5.1506    2.9256 N.pl3     1 <0>        -0.5813
     39 C27        -4.1779   -4.6399    1.6507 C.3       1 <0>         0.0525
     40 H4          1.0053    1.8021    0.0021 H         1 <0>         0.1088
     41 H5         -0.5445    1.7859   -0.8732 H         1 <0>         0.0618
     42 H6         -0.5275    1.7763    0.9067 H         1 <0>         0.0602
     43 H7         -2.3343    1.1803    0.0211 H         1 <0>         0.1389
     44 H8         -4.5101    0.0294    0.0345 H         1 <0>         0.1336
     45 H9         -2.5223   -3.7443    0.0166 H         1 <0>         0.1274
     46 H10        -0.3427   -2.6008   -0.0082 H         1 <0>         0.1404
     47 H11        -4.9414   -2.8935   -2.1026 H         1 <0>         0.1009
     48 H12        -4.3604   -4.2985   -1.1770 H         1 <0>         0.0816
     49 H13        -7.0888   -3.8977   -0.5675 H         1 <0>         0.4005
     50 H14        -8.3278   -6.1210   -1.4531 H         1 <0>         0.1338
     51 H15        -8.9088   -4.7160   -2.3787 H         1 <0>         0.1329
     52 H16        -9.5222   -8.9806   -6.8253 H         1 <0>         0.0923
     53 H17        -8.1106   -8.7368   -7.9080 H         1 <0>         0.0994
     54 H18        -8.3285  -11.0461   -6.4771 H         1 <0>         0.0979
     55 H19        -6.7303  -10.2468   -6.6374 H         1 <0>         0.0864
     56 H20        -8.5958  -10.3358   -4.2746 H         1 <0>         0.0819
     57 H21        -6.8178  -10.1705   -4.3048 H         1 <0>         0.0801
     58 H22        -7.3868   -1.7364    1.7329 H         1 <0>         0.1608
     59 H23        -8.7658   -2.0091    3.7106 H         1 <0>         0.1584
     60 H24        -8.2920   -3.7407    5.3710 H         1 <0>         0.1610
     61 H25        -6.4474   -5.2672    5.1471 H         1 <0>         0.1608
     62 H26        -4.2133   -5.4193    0.8894 H         1 <0>         0.1744
     63 H27        -3.1556   -4.2838    1.7773 H         1 <0>         0.1755
     64 H28        -4.3216   -5.8893    3.4320 H         1 <0>         0.4564
@<TRIPOS>BOND
     1    1    2 1
     2    1   40 1
     3    1   41 1
     4    1   42 1
     5    2    3 1
     6    3    8 ar
     7    3    4 ar
     8    4    5 ar
     9    4   43 1
    10    5    6 ar
    11    5   44 1
    12    6    7 ar
    13    6    9 1
    14    7    8 ar
    15    7   45 1
    16    8   46 1
    17    9   10 1
    18    9   11 1
    19    9   31 1
    20   11   12 1
    21   11   47 1
    22   11   48 1
    23   12   13 am
    24   12   49 1
    25   13   14 2
    26   13   15 1
    27   15   16 1
    28   15   50 1
    29   15   51 1
    30   16   27 am
    31   16   17 am
    32   17   18 2
    33   17   19 1
    34   19   20 1
    35   19   21 1
    36   19   29 1
    37   21   22 1
    38   21   26 1
    39   21   23 1
    40   23   24 1
    41   23   52 1
    42   23   53 1
    43   24   25 1
    44   24   54 1
    45   24   55 1
    46   25   26 1
    47   25   56 1
    48   25   57 1
    49   26   27 am
    50   27   28 2
    51   29   30 3
    52   31   39 1
    53   31   32 2
    54   32   37 ar
    55   32   33 ar
    56   33   34 ar
    57   33   58 1
    58   34   35 ar
    59   34   59 1
    60   35   36 ar
    61   35   60 1
    62   36   37 ar
    63   36   61 1
    64   37   38 2
    65   38   39 1
    66   38   64 1
    67   39   62 1
    68   39   63 1
@<TRIPOS>MOLECULE
ZINC09209519
   54    59     0     0     0
SMALL
USER_CHARGES
methoxy-(4-nitrophenyl)-BLAHtrione
@<TRIPOS>ATOM
      1 C1         -2.8916    7.7556   -3.3354 C.3       1 <0>         0.0199
      2 O1         -2.4236    6.7790   -2.4031 O.3       1 <0>        -0.3056
      3 C2         -1.6594    5.7693   -2.8984 C.ar      1 <0>         0.1354
      4 C3         -1.3658    5.7183   -4.2534 C.ar      1 <0>        -0.1360
      5 C4         -0.5916    4.6950   -4.7585 C.ar      1 <0>        -0.0762
      6 C5         -0.0987    3.7038   -3.9131 C.ar      1 <0>         0.1290
      7 C6         -0.3974    3.7640   -2.5556 C.ar      1 <0>        -0.1636
      8 C7         -1.1703    4.7854   -2.0504 C.ar      1 <0>        -0.0704
      9 C8          0.2733    2.5717   -1.9328 C.3       1 <0>         0.0940
     10 C9         -0.7420    1.6569   -1.2385 C.3       1 <0>        -0.1150
     11 H1         -1.0971    0.8644   -1.8973 H         1 <0>         0.1836
     12 C10         0.0073    1.1125    0.0084 C.3       1 <0>        -0.1334
     13 H2          0.0501    0.0236    0.0321 H         1 <0>         0.1893
     14 C11         1.4049    1.7572   -0.0479 C.3       1 <0>         0.0414
     15 H3          2.1531    1.0753   -0.4520 H         1 <0>         0.1886
     16 C12         0.6155    3.9758    0.0047 C.3       1 <0>        -0.0320
     17 C13         1.2728    3.7460    1.3806 C.3       1 <0>        -0.1471
     18 C14         1.7746    2.2892    1.3489 C.3       1 <0>        -0.1706
     19 C15        -0.7620    1.6889    1.1757 C.2       1 <0>         0.5290
     20 O2         -0.4991    1.5091    2.3454 O.2       1 <0>        -0.4091
     21 N1         -1.7875    2.4275    0.6942 N.am      1 <0>        -0.5369
     22 C16        -1.8622    2.4784   -0.6407 C.2       1 <0>         0.5164
     23 O3         -2.6982    3.0878   -1.2727 O.2       1 <0>        -0.3979
     24 C17        -2.6939    3.0945    1.5303 C.ar      1 <0>         0.1419
     25 C18        -3.5815    2.3689    2.3131 C.ar      1 <0>        -0.0909
     26 C19        -4.4695    3.0287    3.1401 C.ar      1 <0>        -0.0350
     27 C20        -4.4823    4.4108    3.1806 C.ar      1 <0>        -0.0220
     28 C21        -3.6036    5.1364    2.3974 C.ar      1 <0>        -0.0354
     29 C22        -2.7095    4.4821    1.5727 C.ar      1 <0>        -0.1039
     30 N2         -5.4390    5.1150    4.0638 N.pl3     1 <0>         0.0178
     31 O4         -5.4516    6.3324    4.1001 O.2       1 <0>        -0.1399
     32 O5         -6.2135    4.4771    4.7542 O.3       1 <0>        -0.1382
     33 C23         0.9557    1.8674   -3.0740 C.2       1 <0>         0.5377
     34 O6          1.6144    0.8511   -3.0071 O.2       1 <0>        -0.4423
     35 N3          0.6933    2.5834   -4.1841 N.am      1 <0>        -0.6326
     36 H4         -3.4874    8.5026   -2.8108 H         1 <0>         0.1135
     37 H5         -2.0397    8.2401   -3.8126 H         1 <0>         0.0646
     38 H6         -3.5048    7.2692   -4.0941 H         1 <0>         0.0649
     39 H7         -1.7449    6.4830   -4.9151 H         1 <0>         0.1554
     40 H8         -0.3665    4.6619   -5.8143 H         1 <0>         0.1506
     41 H9         -1.3963    4.8206   -0.9948 H         1 <0>         0.1325
     42 H10         0.8232    4.9855   -0.3495 H         1 <0>         0.1589
     43 H11        -0.4600    3.8100    0.0672 H         1 <0>         0.1147
     44 H12         2.1090    4.4312    1.5196 H         1 <0>         0.1175
     45 H13         0.5396    3.8763    2.1766 H         1 <0>         0.1137
     46 H14         1.2764    1.7018    2.1202 H         1 <0>         0.1477
     47 H15         2.8550    2.2593    1.4901 H         1 <0>         0.1191
     48 H16        -3.5747    1.2895    2.2788 H         1 <0>         0.1559
     49 H17        -5.1575    2.4647    3.7524 H         1 <0>         0.1709
     50 H18        -3.6162    6.2158    2.4309 H         1 <0>         0.1701
     51 H19        -2.0229    5.0493    0.9618 H         1 <0>         0.1447
     52 H20         1.0157    2.3491   -5.0684 H         1 <0>         0.4394
     53 N4          1.2054    2.9345   -0.8615 N.4       1 <0>        -0.3672
     54 H21         2.0941    3.2623   -1.2578 H         1 <0>         0.4434
@<TRIPOS>BOND
     1    1    2 1
     2    1   36 1
     3    1   37 1
     4    1   38 1
     5    2    3 1
     6    3    8 ar
     7    3    4 ar
     8    4    5 ar
     9    4   39 1
    10    5    6 ar
    11    5   40 1
    12    6   35 1
    13    6    7 ar
    14    7    8 ar
    15    7    9 1
    16    8   41 1
    17    9   10 1
    18    9   33 1
    19    9   53 1
    20   10   11 1
    21   10   22 1
    22   10   12 1
    23   12   13 1
    24   12   14 1
    25   12   19 1
    26   14   15 1
    27   14   18 1
    28   14   53 1
    29   16   17 1
    30   16   42 1
    31   16   43 1
    32   16   53 1
    33   17   18 1
    34   17   44 1
    35   17   45 1
    36   18   46 1
    37   18   47 1
    38   19   20 2
    39   19   21 am
    40   21   22 am
    41   21   24 1
    42   22   23 2
    43   24   29 ar
    44   24   25 ar
    45   25   26 ar
    46   25   48 1
    47   26   27 ar
    48   26   49 1
    49   27   28 ar
    50   27   30 1
    51   28   29 ar
    52   28   50 1
    53   29   51 1
    54   30   31 2
    55   30   32 1
    56   33   34 2
    57   33   35 am
    58   35   52 1
    59   53   54 1
@<TRIPOS>MOLECULE
ZINC08996013
   54    59     0     0     0
SMALL
USER_CHARGES
(3aR,4S,8aR,8bR)-2-(2-methoxy-5-nitro-phenyl)spiro[3a,6,7,8,8a,8b-hexahydropyrrolo[3,4-f]pyrrolizine-4,3'-indoline]-1,2',3-trione
@<TRIPOS>ATOM
      1 C1          3.3084    5.5814   -2.0241 C.3       1 <0>         0.0153
      2 O1          2.7418    4.2937   -1.7736 O.3       1 <0>        -0.3037
      3 C2          3.5497    3.2166   -1.9624 C.ar      1 <0>         0.2035
      4 C3          4.8605    3.3954   -2.3755 C.ar      1 <0>        -0.1969
      5 C4          5.6788    2.2990   -2.5724 C.ar      1 <0>         0.0131
      6 C5          5.1949    1.0222   -2.3533 C.ar      1 <0>        -0.0726
      7 C6          3.8906    0.8360   -1.9367 C.ar      1 <0>         0.0079
      8 C7          3.0635    1.9313   -1.7370 C.ar      1 <0>         0.0632
      9 N1          1.7382    1.7444   -1.3144 N.am      1 <0>        -0.5354
     10 C8          1.3620    1.7015   -0.0018 C.2       1 <0>         0.5565
     11 O2          2.0018    2.0797    0.9560 O.2       1 <0>        -0.4097
     12 C9         -0.0127    1.0858    0.0080 C.3       1 <0>        -0.1373
     13 H1          0.0021   -0.0041    0.0020 H         1 <0>         0.1742
     14 C10        -1.0897    1.6704    0.9175 C.3       1 <0>         0.0556
     15 H2         -1.1560    1.1333    1.8637 H         1 <0>         0.1876
     16 C11        -0.8920    3.2005    1.0893 C.3       1 <0>        -0.1480
     17 C12        -2.3537    3.6989    1.2513 C.3       1 <0>        -0.1234
     18 C13        -3.1430    2.7840    0.2902 C.3       1 <0>        -0.0894
     19 C14        -1.9317    1.4762   -1.3576 C.3       1 <0>         0.1375
     20 C15        -0.4910    1.7506   -1.3461 C.3       1 <0>        -0.1786
     21 H3         -0.4723    2.8193   -1.1327 H         1 <0>         0.1441
     22 C16         0.6811    1.5857   -2.1758 C.2       1 <0>         0.5871
     23 O3          0.7216    1.3578   -3.3658 O.2       1 <0>        -0.4120
     24 C17        -2.3062    0.1192   -1.8967 C.ar      1 <0>        -0.2022
     25 C18        -1.9234   -1.1629   -1.5716 C.ar      1 <0>        -0.0461
     26 C19        -2.4538   -2.2393   -2.2604 C.ar      1 <0>        -0.1173
     27 C20        -3.3688   -2.0239   -3.2750 C.ar      1 <0>        -0.0446
     28 C21        -3.7549   -0.7412   -3.6037 C.ar      1 <0>        -0.1160
     29 C22        -3.2252    0.3480   -2.9147 C.ar      1 <0>         0.1620
     30 N2         -3.4560    1.7171   -3.0582 N.am      1 <0>        -0.6287
     31 C23        -2.7411    2.4467   -2.1832 C.2       1 <0>         0.5374
     32 O4         -2.7456    3.6550   -2.0778 O.2       1 <0>        -0.4380
     33 N3          6.0762   -0.1479   -2.5660 N.pl3     1 <0>         0.0297
     34 O5          5.6515   -1.2731   -2.3739 O.2       1 <0>        -0.1535
     35 O6          7.2261    0.0146   -2.9332 O.3       1 <0>        -0.1418
     36 H4          4.1626    5.7370   -1.3652 H         1 <0>         0.0724
     37 H5          3.6352    5.6389   -3.0624 H         1 <0>         0.0713
     38 H6          2.5594    6.3507   -1.8359 H         1 <0>         0.1154
     39 H7          5.2413    4.3912   -2.5474 H         1 <0>         0.1678
     40 H8          6.6989    2.4399   -2.8980 H         1 <0>         0.1714
     41 H9          3.5151   -0.1624   -1.7671 H         1 <0>         0.1668
     42 H10        -0.4232    3.6450    0.2114 H         1 <0>         0.0964
     43 H11        -0.3083    3.4046    1.9870 H         1 <0>         0.1325
     44 H12        -2.4407    4.7423    0.9484 H         1 <0>         0.1177
     45 H13        -2.6970    3.5671    2.2775 H         1 <0>         0.1066
     46 H14        -3.3043    3.2958   -0.6586 H         1 <0>         0.1781
     47 H15        -4.1015    2.5184    0.7361 H         1 <0>         0.1415
     48 H16        -1.2086   -1.3283   -0.7791 H         1 <0>         0.1362
     49 H17        -2.1544   -3.2453   -2.0062 H         1 <0>         0.1506
     50 H18        -3.7827   -2.8642   -3.8127 H         1 <0>         0.1521
     51 H19        -4.4694   -0.5805   -4.3975 H         1 <0>         0.1471
     52 H20        -4.0613    2.0983   -3.7133 H         1 <0>         0.4400
     53 N4         -2.3272    1.5794    0.0852 N.4       1 <0>        -0.3842
     54 H21        -2.8667    0.7489    0.3560 H         1 <0>         0.4410
@<TRIPOS>BOND
     1    1    2 1
     2    1   36 1
     3    1   37 1
     4    1   38 1
     5    2    3 1
     6    3    8 ar
     7    3    4 ar
     8    4    5 ar
     9    4   39 1
    10    5    6 ar
    11    5   40 1
    12    6    7 ar
    13    6   33 1
    14    7    8 ar
    15    7   41 1
    16    8    9 1
    17    9   22 am
    18    9   10 am
    19   10   11 2
    20   10   12 1
    21   12   13 1
    22   12   20 1
    23   12   14 1
    24   14   15 1
    25   14   16 1
    26   14   53 1
    27   16   17 1
    28   16   42 1
    29   16   43 1
    30   17   18 1
    31   17   44 1
    32   17   45 1
    33   18   46 1
    34   18   47 1
    35   18   53 1
    36   19   31 1
    37   19   20 1
    38   19   24 1
    39   19   53 1
    40   20   21 1
    41   20   22 1
    42   22   23 2
    43   24   29 ar
    44   24   25 ar
    45   25   26 ar
    46   25   48 1
    47   26   27 ar
    48   26   49 1
    49   27   28 ar
    50   27   50 1
    51   28   29 ar
    52   28   51 1
    53   29   30 1
    54   30   31 am
    55   30   52 1
    56   31   32 2
    57   33   34 2
    58   33   35 1
    59   53   54 1
@<TRIPOS>MOLECULE
ZINC36355040
   60    63     0     0     0
SMALL
USER_CHARGES

@<TRIPOS>ATOM
      1 C1          2.6381    1.5003   -1.4300 C.3       1 <0>        -0.1292
      2 C2          3.0373    0.0658   -1.1975 C.ar      1 <0>        -0.0207
      3 C3          4.2762   -0.2282   -0.6593 C.ar      1 <0>        -0.1407
      4 C4          4.6424   -1.5440   -0.4459 C.ar      1 <0>        -0.0154
      5 C5          3.7695   -2.5657   -0.7703 C.ar      1 <0>        -0.6894
      6 C6          2.5303   -2.2716   -1.3076 C.ar      1 <0>        -0.0157
      7 C7          2.1624   -0.9556   -1.5170 C.ar      1 <0>        -0.1396
      8 S1          4.2368   -4.2429   -0.4994 S.o2      1 <0>         2.6904
      9 O1          3.4602   -5.0300   -1.3919 O.2       1 <0>        -0.9460
     10 O2          5.6575   -4.2732   -0.4960 O.2       1 <0>        -0.9428
     11 N1          3.7511   -4.6453    1.0317 N.pl3     1 <0>        -1.0020
     12 C8          4.6696   -4.5443    2.1784 C.3       1 <0>         0.0991
     13 C9          4.0879   -3.5336    3.1687 C.3       1 <0>         0.0900
     14 N2          2.6714   -3.7875    3.3937 N.am      1 <0>        -0.7161
     15 C10         1.8795   -4.4567    2.5547 C.2       1 <0>         0.5117
     16 O3          0.6972   -4.5353    2.8137 O.2       1 <0>        -0.5112
     17 C11         2.3832   -5.1122    1.3026 C.3       1 <0>         0.1602
     18 H1          1.7352   -4.8483    0.4668 H         1 <0>         0.1348
     19 C12         2.3879   -6.6305    1.4910 C.3       1 <0>        -0.1476
     20 C13         0.9692   -7.1284    1.5936 C.2       1 <0>         0.5164
     21 O4          0.0443   -6.3684    1.3991 O.2       1 <0>        -0.4792
     22 N3          0.7283   -8.4182    1.9015 N.am      1 <0>        -0.6246
     23 C14         1.8391   -9.3490    2.1458 C.3       1 <0>         0.0884
     24 C15         1.6473   -9.9894    3.5261 C.3       1 <0>         0.0941
     25 N4          0.2691  -10.4901    3.6241 N.pl3     1 <0>        -0.5882
     26 C16        -0.8417   -9.5594    3.3798 C.3       1 <0>         0.0845
     27 C17        -0.6500   -8.9176    2.0050 C.3       1 <0>         0.1001
     28 C18         0.0206  -11.8204    3.9417 C.ar      1 <0>         0.4447
     29 C19         1.0817  -12.7146    4.0440 C.ar      1 <0>        -0.2011
     30 C20         0.8201  -14.0352    4.3606 C.ar      1 <0>         0.0390
     31 C21        -0.4989  -14.4190    4.5652 C.ar      1 <0>        -0.1710
     32 C22        -1.5026  -13.4789    4.4475 C.ar      1 <0>         0.1481
     33 N5         -1.2231  -12.2240    4.1494 N.ar      1 <0>        -0.5073
     34 H2          2.1454    1.8893   -0.5390 H         1 <0>         0.0820
     35 H3          3.5266    2.0948   -1.6428 H         1 <0>         0.0761
     36 H4          1.9535    1.5542   -2.2765 H         1 <0>         0.0756
     37 H5          4.9581    0.5700   -0.4059 H         1 <0>         0.1360
     38 H6          5.6106   -1.7738   -0.0261 H         1 <0>         0.1408
     39 H7          1.8485   -3.0698   -1.5614 H         1 <0>         0.1387
     40 H8          1.1928   -0.7257   -1.9333 H         1 <0>         0.1354
     41 H9          4.7654   -5.5175    2.6597 H         1 <0>         0.0893
     42 H10         5.6474   -4.2041    1.8375 H         1 <0>         0.1214
     43 H11         4.6213   -3.6117    4.1160 H         1 <0>         0.0965
     44 H12         4.2129   -2.5272    2.7692 H         1 <0>         0.0747
     45 H13         2.2765   -3.4463    4.2113 H         1 <0>         0.4038
     46 H14         2.8773   -7.1010    0.6381 H         1 <0>         0.1205
     47 H15         2.9281   -6.8817    2.4038 H         1 <0>         0.1032
     48 H16         1.8417  -10.1245    1.3798 H         1 <0>         0.0871
     49 H17         2.7836   -8.8054    2.1227 H         1 <0>         0.1133
     50 H18         2.3466  -10.8169    3.6458 H         1 <0>         0.1143
     51 H19         1.8220   -9.2444    4.3024 H         1 <0>         0.1007
     52 H20        -1.7862  -10.1029    3.4029 H         1 <0>         0.0892
     53 H21        -0.8443   -8.7838    4.1457 H         1 <0>         0.1058
     54 H22        -1.3489   -8.0893    1.8890 H         1 <0>         0.1228
     55 H23        -0.8287   -9.6617    1.2288 H         1 <0>         0.0795
     56 H24         2.0957  -12.3820    3.8780 H         1 <0>         0.1790
     57 H25         1.6233  -14.7520    4.4465 H         1 <0>         0.1748
     58 H26        -0.7369  -15.4428    4.8134 H         1 <0>         0.1809
     59 H27        -2.5297  -13.7731    4.6054 H         1 <0>         0.2065
     60 H28        -1.9470  -11.5825    4.0767 H         1 <0>         0.4384
@<TRIPOS>BOND
     1    1    2 1
     2    1   34 1
     3    1   35 1
     4    1   36 1
     5    2    7 ar
     6    2    3 ar
     7    3    4 ar
     8    3   37 1
     9    4    5 ar
    10    4   38 1
    11    5    6 ar
    12    5    8 1
    13    6    7 ar
    14    6   39 1
    15    7   40 1
    16    8    9 2
    17    8   10 2
    18    8   11 1
    19   11   17 1
    20   11   12 1
    21   12   13 1
    22   12   41 1
    23   12   42 1
    24   13   14 1
    25   13   43 1
    26   13   44 1
    27   14   15 am
    28   14   45 1
    29   15   16 2
    30   15   17 1
    31   17   18 1
    32   17   19 1
    33   19   20 1
    34   19   46 1
    35   19   47 1
    36   20   21 2
    37   20   22 am
    38   22   27 1
    39   22   23 1
    40   23   24 1
    41   23   48 1
    42   23   49 1
    43   24   25 1
    44   24   50 1
    45   24   51 1
    46   25   26 1
    47   25   28 1
    48   26   27 1
    49   26   52 1
    50   26   53 1
    51   27   54 1
    52   27   55 1
    53   28   33 ar
    54   28   29 ar
    55   29   30 ar
    56   29   56 1
    57   30   31 ar
    58   30   57 1
    59   31   32 ar
    60   31   58 1
    61   32   33 ar
    62   32   59 1
    63   33   60 1
@<TRIPOS>MOLECULE
ZINC20207672
   50    53     0     0     0
SMALL
USER_CHARGES

@<TRIPOS>ATOM
      1 C1         -0.1277    1.5920    0.8464 C.3       1 <0>         0.0235
      2 O1         -0.0618    0.2035    0.5149 O.3       1 <0>        -0.3040
      3 C2         -1.2411   -0.4319    0.2806 C.ar      1 <0>         0.0958
      4 C3         -2.4286    0.2660    0.3624 C.ar      1 <0>        -0.1285
      5 C4         -3.6424   -0.3927    0.1196 C.ar      1 <0>        -0.0974
      6 C5         -3.6415   -1.7569   -0.2049 C.ar      1 <0>        -0.0521
      7 C6         -2.4514   -2.4437   -0.2838 C.ar      1 <0>        -0.1799
      8 C7         -1.2491   -1.7880   -0.0481 C.ar      1 <0>         0.1360
      9 O2         -0.0784   -2.4703   -0.1332 O.3       1 <0>        -0.2935
     10 C8         -0.1584   -3.8558   -0.4739 C.3       1 <0>         0.0996
     11 C9          1.2290   -4.4423   -0.5210 C.ar      1 <0>        -0.0851
     12 C10         2.3257   -3.6465   -0.2476 C.ar      1 <0>        -0.0842
     13 C11         3.5982   -4.1843   -0.2907 C.ar      1 <0>        -0.1132
     14 C12         3.7751   -5.5185   -0.6074 C.ar      1 <0>        -0.1042
     15 C13         2.6795   -6.3151   -0.8810 C.ar      1 <0>        -0.1081
     16 C14         1.4049   -5.7786   -0.8324 C.ar      1 <0>        -0.0304
     17 Cl1         0.0277   -6.7803   -1.1695 Cl        1 <0>        -0.0649
     18 C15        -4.9068    0.3415    0.2050 C.2       1 <0>         0.1021
     19 C16        -6.0460   -0.2977    0.6404 C.2       1 <0>        -0.2326
     20 C17        -6.0055   -1.6759    1.2064 C.2       1 <0>         0.4535
     21 N1         -4.9982   -2.1382    1.8980 N.2       1 <0>        -0.6125
     22 N2         -7.1629   -2.4322    0.9223 N.pl3     1 <0>        -0.4315
     23 C18        -8.3214   -1.7408    0.6401 C.2       1 <0>         0.3794
     24 N3         -8.4665   -0.4461    0.5075 N.2       1 <0>        -0.5239
     25 C19        -7.3793    0.3509    0.5770 C.2       1 <0>         0.5516
     26 O3         -7.4875    1.5666    0.5835 O.2       1 <0>        -0.4334
     27 S1         -9.5080   -3.0500    0.4901 S.3       1 <0>         0.2106
     28 C20        -8.3772   -4.4171    0.7092 C.2       1 <0>        -0.4506
     29 N4         -7.2441   -3.8083    0.9126 N.2       1 <0>        -0.1197
     30 S2         -8.7105   -6.1466    0.6615 S.o2      1 <0>         2.5191
     31 O4         -9.7867   -6.2833   -0.2563 O.2       1 <0>        -0.8920
     32 O5         -7.4520   -6.7513    0.3974 O.2       1 <0>        -0.8905
     33 C21        -9.2632   -6.5613    2.3388 C.3       1 <0>        -0.6341
     34 H1          0.8798    1.9752    1.0080 H         1 <0>         0.1037
     35 H2         -0.5977    2.1388    0.0289 H         1 <0>         0.0570
     36 H3         -0.7156    1.7211    1.7551 H         1 <0>         0.0569
     37 H4         -2.4231    1.3165    0.6130 H         1 <0>         0.1450
     38 H5         -4.5740   -2.2683   -0.3923 H         1 <0>         0.1168
     39 H6         -2.4516   -3.4944   -0.5338 H         1 <0>         0.1396
     40 H7         -0.7496   -4.3809    0.2763 H         1 <0>         0.0831
     41 H8         -0.6316   -3.9632   -1.4499 H         1 <0>         0.0829
     42 H9          2.1882   -2.6041   -0.0005 H         1 <0>         0.1439
     43 H10         4.4548   -3.5620   -0.0773 H         1 <0>         0.1327
     44 H11         4.7697   -5.9381   -0.6413 H         1 <0>         0.1347
     45 H12         2.8178   -7.3572   -1.1287 H         1 <0>         0.1374
     46 H13        -4.9457    1.3842   -0.0735 H         1 <0>         0.1626
     47 H14        -5.0228   -3.0438    2.2445 H         1 <0>         0.3624
     48 H15       -10.1565   -5.9850    2.5798 H         1 <0>         0.1427
     49 H16        -9.4918   -7.6256    2.3933 H         1 <0>         0.1524
     50 H17        -8.4735   -6.3223    3.0510 H         1 <0>         0.1413
@<TRIPOS>BOND
     1    1    2 1
     2    1   34 1
     3    1   35 1
     4    1   36 1
     5    2    3 1
     6    3    8 ar
     7    3    4 ar
     8    4    5 ar
     9    4   37 1
    10    5    6 ar
    11    5   18 1
    12    6    7 ar
    13    6   38 1
    14    7    8 ar
    15    7   39 1
    16    8    9 1
    17    9   10 1
    18   10   11 1
    19   10   40 1
    20   10   41 1
    21   11   16 ar
    22   11   12 ar
    23   12   13 ar
    24   12   42 1
    25   13   14 ar
    26   13   43 1
    27   14   15 ar
    28   14   44 1
    29   15   16 ar
    30   15   45 1
    31   16   17 1
    32   18   19 2
    33   18   46 1
    34   19   25 1
    35   19   20 1
    36   20   21 2
    37   20   22 1
    38   21   47 1
    39   22   29 1
    40   22   23 1
    41   23   24 2
    42   23   27 1
    43   24   25 1
    44   25   26 2
    45   27   28 1
    46   28   29 2
    47   28   30 1
    48   30   31 2
    49   30   32 2
    50   30   33 1
    51   33   48 1
    52   33   49 1
    53   33   50 1
@<TRIPOS>MOLECULE
ZINC63351500
   57    60     0     0     0
SMALL
USER_CHARGES

@<TRIPOS>ATOM
      1 C1         -0.0138    1.5094    0.0535 C.3       1 <0>        -0.1566
      2 C2          0.0053   -0.0204    0.0364 C.3       1 <0>         0.0542
      3 O1         -1.3358   -0.5136    0.0429 O.3       1 <0>        -0.3178
      4 C3         -1.4955   -1.8500    0.0294 C.2       1 <0>         0.4294
      5 O2         -0.5246   -2.5765    0.0127 O.2       1 <0>        -0.4717
      6 C4         -2.8656   -2.4370    0.0352 C.2       1 <0>         0.3457
      7 O3         -3.8326   -1.7134    0.0518 O.2       1 <0>        -0.3392
      8 C5         -3.0444   -3.9333    0.0201 C.3       1 <0>         0.1424
      9 H1         -2.3138   -4.3853   -0.6508 H         1 <0>         0.1782
     10 C6         -2.8635   -4.4916    1.4359 C.3       1 <0>         0.0883
     11 H2         -2.7971   -5.5793    1.4131 H         1 <0>         0.1946
     12 C7         -4.0787   -4.0442    2.2382 C.2       1 <0>         0.0596
     13 C8         -3.6106   -3.3868    3.2927 C.ar      1 <0>        -0.1574
     14 C9         -4.2893   -2.7838    4.4510 C.ar      1 <0>         0.0072
     15 C10        -3.4892   -2.1648    5.3590 C.ar      1 <0>        -0.1582
     16 C11        -2.0989   -2.0861    5.2317 C.ar      1 <0>         0.0625
     17 C12        -1.3916   -2.6156    4.2019 C.ar      1 <0>        -0.2062
     18 C13        -2.1226   -3.2969    3.1856 C.ar      1 <0>         0.3268
     19 N1         -1.6923   -3.9182    2.1017 N.pl3     1 <0>        -0.5888
     20 C14        -5.4928   -4.2920    1.7732 C.3       1 <0>        -0.1004
     21 C15        -5.5752   -3.7909    0.3198 C.3       1 <0>         0.0907
     22 N2         -4.4054   -4.2678   -0.4275 N.am      1 <0>        -0.6162
     23 C16        -4.5786   -5.0192   -1.5328 C.2       1 <0>         0.7134
     24 O4         -3.6188   -5.3392   -2.2070 O.2       1 <0>        -0.5480
     25 N3         -5.8159   -5.4160   -1.8909 N.am      1 <0>        -0.6644
     26 C17        -5.9848   -6.2831   -2.9671 C.ar      1 <0>         0.2202
     27 C18        -5.0459   -7.2748   -3.2183 C.ar      1 <0>        -0.1342
     28 C19        -5.2152   -8.1332   -4.2856 C.ar      1 <0>        -0.0553
     29 C20        -6.3200   -8.0138   -5.1137 C.ar      1 <0>        -0.1403
     30 C21        -7.2621   -7.0361   -4.8804 C.ar      1 <0>        -0.0368
     31 C22        -7.1077   -6.1629   -3.8001 C.ar      1 <0>        -0.1605
     32 C23        -8.1147   -5.1187   -3.5410 C.2       1 <0>         0.5214
     33 O5         -8.0220   -4.4170   -2.5533 O.2       1 <0>        -0.5252
     34 O6         -9.1384   -4.9420   -4.3994 O.3       1 <0>        -0.3405
     35 C24       -10.0774   -3.9115   -4.0859 C.3       1 <0>         0.0334
     36 H3          1.0092    1.8856    0.0486 H         1 <0>         0.0917
     37 H4         -0.5401    1.8761   -0.8278 H         1 <0>         0.0734
     38 H5         -0.5242    1.8563    0.9520 H         1 <0>         0.0704
     39 H6          0.5157   -0.3673   -0.8621 H         1 <0>         0.0817
     40 H7          0.5316   -0.3871    0.9177 H         1 <0>         0.0764
     41 H8         -5.3614   -2.8307    4.5729 H         1 <0>         0.1738
     42 H9         -3.9510   -1.7101    6.2230 H         1 <0>         0.1588
     43 H10        -1.5510   -1.5685    6.0052 H         1 <0>         0.1612
     44 H11        -0.3165   -2.5244    4.1542 H         1 <0>         0.1708
     45 H12        -5.7172   -5.3579    1.8134 H         1 <0>         0.1323
     46 H13        -6.1934   -3.7386    2.3986 H         1 <0>         0.1308
     47 H14        -6.4838   -4.1728   -0.1456 H         1 <0>         0.1191
     48 H15        -5.5923   -2.7011    0.3113 H         1 <0>         0.1148
     49 H16        -6.5888   -5.0974   -1.3988 H         1 <0>         0.4220
     50 H17        -4.1819   -7.3743   -2.5779 H         1 <0>         0.1438
     51 H18        -4.4818   -8.9026   -4.4769 H         1 <0>         0.1390
     52 H19        -6.4428   -8.6904   -5.9465 H         1 <0>         0.1401
     53 H20        -8.1212   -6.9474   -5.5288 H         1 <0>         0.1473
     54 H21       -10.8482   -3.8758   -4.8558 H         1 <0>         0.1091
     55 H22       -10.5378   -4.1209   -3.1203 H         1 <0>         0.0647
     56 H23        -9.5626   -2.9517   -4.0424 H         1 <0>         0.0637
     57 H24        -0.7753   -3.9843    1.7926 H         1 <0>         0.4649
@<TRIPOS>BOND
     1    1    2 1
     2    1   36 1
     3    1   37 1
     4    1   38 1
     5    2    3 1
     6    2   39 1
     7    2   40 1
     8    3    4 1
     9    4    5 2
    10    4    6 1
    11    6    7 2
    12    6    8 1
    13    8    9 1
    14    8   22 1
    15    8   10 1
    16   10   11 1
    17   10   19 1
    18   10   12 1
    19   12   13 2
    20   12   20 1
    21   13   18 ar
    22   13   14 ar
    23   14   15 ar
    24   14   41 1
    25   15   16 ar
    26   15   42 1
    27   16   17 ar
    28   16   43 1
    29   17   18 ar
    30   17   44 1
    31   18   19 2
    32   19   57 1
    33   20   21 1
    34   20   45 1
    35   20   46 1
    36   21   22 1
    37   21   47 1
    38   21   48 1
    39   22   23 am
    40   23   24 2
    41   23   25 am
    42   25   26 1
    43   25   49 1
    44   26   31 ar
    45   26   27 ar
    46   27   28 ar
    47   27   50 1
    48   28   29 ar
    49   28   51 1
    50   29   30 ar
    51   29   52 1
    52   30   31 ar
    53   30   53 1
    54   31   32 1
    55   32   33 2
    56   32   34 1
    57   34   35 1
    58   35   54 1
    59   35   55 1
    60   35   56 1
@<TRIPOS>MOLECULE
ZINC12437914
   72    74     0     0     0
SMALL
USER_CHARGES
2-[(2S)-1-[(2-ethoxyphenyl)methyl]-3-oxo-piperazin-2-yl]-N-[[1-(2-methoxyethyl)-4-piperidyl]methyl]acetamide
@<TRIPOS>ATOM
      1 C1          2.6884    4.1231    5.9593 C.3       1 <0>        -0.1542
      2 C2          1.2119    4.1022    6.3597 C.3       1 <0>         0.0513
      3 O1          0.4421    3.5119    5.3105 O.3       1 <0>        -0.3318
      4 C3         -0.8991    3.4164    5.5079 C.ar      1 <0>         0.1527
      5 C4         -1.4628    3.8817    6.6873 C.ar      1 <0>        -0.2010
      6 C5         -2.8262    3.7839    6.8855 C.ar      1 <0>        -0.0392
      7 C6         -3.6294    3.2227    5.9096 C.ar      1 <0>        -0.1455
      8 C7         -3.0709    2.7631    4.7314 C.ar      1 <0>        -0.0553
      9 C8         -1.7069    2.8539    4.5306 C.ar      1 <0>        -0.1993
     10 C9         -1.0981    2.3480    3.2482 C.3       1 <0>         0.0546
     11 C10        -1.5539    0.0294    3.7874 C.3       1 <0>        -0.0213
     12 C11        -0.8825   -1.2410    4.3125 C.3       1 <0>         0.0815
     13 N1          0.1840   -1.6549    3.4053 N.am      1 <0>        -0.7217
     14 C12         0.7293   -0.8336    2.5019 C.2       1 <0>         0.5053
     15 O2          1.6327   -1.2504    1.8083 O.2       1 <0>        -0.4681
     16 C13         0.2697    0.5840    2.3100 C.3       1 <0>         0.0365
     17 H1         -0.3499    0.6455    1.4154 H         1 <0>         0.1774
     18 C14         1.4879    1.4950    2.1452 C.3       1 <0>        -0.1588
     19 C15         2.1832    1.1739    0.8473 C.2       1 <0>         0.5264
     20 O3          1.6763    0.4001    0.0630 O.2       1 <0>        -0.4971
     21 N2          3.3685    1.7467    0.5582 N.am      1 <0>        -0.7299
     22 C16         4.0445    1.4347   -0.7035 C.3       1 <0>         0.1251
     23 C17         5.3603    2.2113   -0.7827 C.3       1 <0>        -0.1121
     24 C18         5.0652    3.7123   -0.8504 C.3       1 <0>        -0.1430
     25 C19         6.3815    4.4802   -0.9909 C.3       1 <0>        -0.0062
     26 C20         7.4122    2.6161   -2.1465 C.3       1 <0>        -0.0033
     27 C21         6.1267    1.7926   -2.0405 C.3       1 <0>        -0.1417
     28 C22         8.2760    4.8571   -2.4502 C.3       1 <0>        -0.0002
     29 C23         9.0960    4.9510   -1.1618 C.3       1 <0>         0.0288
     30 O4          9.6118    3.6603   -0.8304 O.3       1 <0>        -0.3978
     31 C24        10.3971    3.6372    0.3633 C.3       1 <0>         0.0267
     32 H2          2.8092    4.7073    5.0471 H         1 <0>         0.0670
     33 H3          3.2756    4.5733    6.7596 H         1 <0>         0.0891
     34 H4          3.0323    3.1034    5.7858 H         1 <0>         0.0646
     35 H5          0.8680    5.1219    6.5332 H         1 <0>         0.0740
     36 H6          1.0911    3.5179    7.2719 H         1 <0>         0.0726
     37 H7         -0.8360    4.3203    7.4497 H         1 <0>         0.1412
     38 H8         -3.2654    4.1462    7.8031 H         1 <0>         0.1412
     39 H9         -4.6953    3.1471    6.0664 H         1 <0>         0.1414
     40 H10        -3.7008    2.3290    3.9690 H         1 <0>         0.1419
     41 H11        -1.8704    2.2778    2.4823 H         1 <0>         0.1428
     42 H12        -0.3208    3.0372    2.9184 H         1 <0>         0.1374
     43 H13        -2.2233    0.4304    4.5485 H         1 <0>         0.1548
     44 H14        -2.1199   -0.2025    2.8852 H         1 <0>         0.1450
     45 H15        -0.4627   -1.0466    5.2994 H         1 <0>         0.0984
     46 H16        -1.6233   -2.0372    4.3869 H         1 <0>         0.1308
     47 H17         0.5114   -2.5663    3.4602 H         1 <0>         0.4272
     48 H18         1.1646    2.5359    2.1364 H         1 <0>         0.1289
     49 H19         2.1760    1.3352    2.9753 H         1 <0>         0.1193
     50 H20         3.7739    2.3656    1.1855 H         1 <0>         0.4005
     51 H21         4.2504    0.3653   -0.7505 H         1 <0>         0.0835
     52 H22         3.4042    1.7185   -1.5386 H         1 <0>         0.0785
     53 H23         5.9635    1.9971    0.0995 H         1 <0>         0.0968
     54 H24         4.4293    3.9197   -1.7110 H         1 <0>         0.0930
     55 H25         4.5572    4.0248    0.0619 H         1 <0>         0.1064
     56 H26         7.0113    4.2832   -0.1233 H         1 <0>         0.1307
     57 H27         6.1738    5.5484   -1.0538 H         1 <0>         0.1297
     58 H28         8.0371    2.4279   -1.2735 H         1 <0>         0.1478
     59 H29         7.9531    2.3306   -3.0487 H         1 <0>         0.1304
     60 H30         6.3770    0.7336   -1.9784 H         1 <0>         0.1164
     61 H31         5.5074    1.9698   -2.9198 H         1 <0>         0.0915
     62 H32         8.8783    4.3931   -3.2312 H         1 <0>         0.1404
     63 H33         7.9797    5.8574   -2.7660 H         1 <0>         0.1434
     64 H34         9.9227    5.6464   -1.3072 H         1 <0>         0.0986
     65 H35         8.4599    5.3072   -0.3515 H         1 <0>         0.0739
     66 H36        11.2508    4.3052    0.2496 H         1 <0>         0.0575
     67 H37         9.7880    3.9660    1.2053 H         1 <0>         0.0493
     68 H38        10.7514    2.6226    0.5455 H         1 <0>         0.1006
     69 N3         -0.4965    1.0174    3.4934 N.4       1 <0>        -0.3929
     70 H39         0.1370    1.0805    4.2989 H         1 <0>         0.4303
     71 N4          7.0584    4.0489   -2.2326 N.4       1 <0>        -0.3912
     72 H40         6.4204    4.1873   -3.0250 H         1 <0>         0.4283
@<TRIPOS>BOND
     1    1    2 1
     2    1   32 1
     3    1   33 1
     4    1   34 1
     5    2    3 1
     6    2   35 1
     7    2   36 1
     8    3    4 1
     9    4    9 ar
    10    4    5 ar
    11    5    6 ar
    12    5   37 1
    13    6    7 ar
    14    6   38 1
    15    7    8 ar
    16    7   39 1
    17    8    9 ar
    18    8   40 1
    19    9   10 1
    20   10   41 1
    21   10   42 1
    22   10   69 1
    23   11   12 1
    24   11   43 1
    25   11   44 1
    26   11   69 1
    27   12   13 1
    28   12   45 1
    29   12   46 1
    30   13   14 am
    31   13   47 1
    32   14   15 2
    33   14   16 1
    34   16   17 1
    35   16   18 1
    36   16   69 1
    37   18   19 1
    38   18   48 1
    39   18   49 1
    40   19   20 2
    41   19   21 am
    42   21   22 1
    43   21   50 1
    44   22   23 1
    45   22   51 1
    46   22   52 1
    47   23   27 1
    48   23   24 1
    49   23   53 1
    50   24   25 1
    51   24   54 1
    52   24   55 1
    53   25   56 1
    54   25   57 1
    55   25   71 1
    56   26   27 1
    57   26   58 1
    58   26   59 1
    59   26   71 1
    60   27   60 1
    61   27   61 1
    62   28   29 1
    63   28   62 1
    64   28   63 1
    65   28   71 1
    66   29   30 1
    67   29   64 1
    68   29   65 1
    69   30   31 1
    70   31   66 1
    71   31   67 1
    72   31   68 1
    73   69   70 1
    74   71   72 1
@<TRIPOS>MOLECULE
ZINC39695453
   72    75     0     0     0
SMALL
USER_CHARGES

@<TRIPOS>ATOM
      1 C1          2.4457   -4.8508   -2.5605 C.3       1 <0>        -0.1916
      2 C2          0.9962   -5.3295   -2.6641 C.3       1 <0>        -0.0097
      3 N1          0.1768   -4.6293   -1.6660 N.4       1 <0>        -0.3965
      4 C3          0.6019   -5.0257   -0.3066 C.3       1 <0>        -0.0121
      5 C4         -0.7070   -5.0670    0.5209 C.3       1 <0>        -0.1442
      6 C5         -1.7153   -5.6292   -0.5154 C.3       1 <0>        -0.1340
      7 C6         -1.2402   -4.9974   -1.8408 C.3       1 <0>         0.0129
      8 H1         -1.3385   -5.7191   -2.6517 H         1 <0>         0.1452
      9 C7         -2.0684   -3.7483   -2.1483 C.3       1 <0>         0.0956
     10 N2         -1.5014   -3.0604   -3.3108 N.am      1 <0>        -0.7556
     11 C8         -2.0704   -1.9270   -3.7669 C.2       1 <0>         0.5276
     12 O1         -3.0519   -1.4765   -3.2149 O.2       1 <0>        -0.4916
     13 C9         -1.4871   -1.2194   -4.9628 C.3       1 <0>        -0.1138
     14 H2         -0.4134   -1.3973   -5.0217 H         1 <0>         0.1139
     15 C10        -1.7779    0.2962   -4.8858 C.3       1 <0>         0.1080
     16 N3         -2.0428    0.6982   -6.2873 N.am      1 <0>        -0.6219
     17 C11        -2.8289   -0.4254   -6.8509 C.3       1 <0>         0.1072
     18 C12        -2.1793   -1.6893   -6.2533 C.3       1 <0>        -0.0736
     19 C13        -3.2482   -2.7292   -5.9311 C.3       1 <0>        -0.1444
     20 C14        -3.8818   -3.2241   -7.2343 C.3       1 <0>        -0.0096
     21 N4         -2.8452   -3.8086   -8.0936 N.4       1 <0>        -0.5041
     22 C15        -1.8714   -2.7785   -8.4748 C.3       1 <0>        -0.0134
     23 C16        -1.1527   -2.2648   -7.2240 C.3       1 <0>        -0.1324
     24 C17        -1.6561    1.8296   -6.9094 C.2       1 <0>         0.5365
     25 O2         -1.9539    2.0155   -8.0702 O.2       1 <0>        -0.5034
     26 C18        -0.8536    2.8636   -6.1624 C.3       1 <0>         0.1263
     27 H3         -0.1093    2.3729   -5.5353 H         1 <0>         0.1069
     28 C19        -1.7903    3.7247   -5.2891 C.3       1 <0>        -0.1220
     29 C20        -1.1815    5.1455   -5.4229 C.3       1 <0>        -0.1276
     30 C21        -0.6907    5.1364   -6.8922 C.3       1 <0>         0.0777
     31 N5         -0.1890    3.7648   -7.1151 N.am      1 <0>        -0.5813
     32 C22         0.7242    3.3989   -8.0363 C.2       1 <0>         0.5126
     33 O3          1.0613    2.2375   -8.1281 O.2       1 <0>        -0.4822
     34 C23         1.3266    4.4329   -8.9523 C.3       1 <0>         0.4580
     35 F1          2.2406    3.8169   -9.8139 F         1 <0>        -0.1482
     36 F2          0.3129    5.0380   -9.7031 F         1 <0>        -0.1595
     37 F3          1.9854    5.4038   -8.1904 F         1 <0>        -0.1625
     38 H4          3.0537   -5.3704   -3.3011 H         1 <0>         0.1096
     39 H5          2.4878   -3.7773   -2.7443 H         1 <0>         0.0798
     40 H6          2.8282   -5.0638   -1.5623 H         1 <0>         0.0860
     41 H7          0.6137   -5.1166   -3.6623 H         1 <0>         0.1190
     42 H8          0.9541   -6.4031   -2.4802 H         1 <0>         0.1353
     43 H9          1.0691   -6.0103   -0.3271 H         1 <0>         0.1378
     44 H10         1.2889   -4.2872    0.1066 H         1 <0>         0.1382
     45 H11        -0.6086   -5.7384    1.3740 H         1 <0>         0.1246
     46 H12        -0.9961   -4.0670    0.8444 H         1 <0>         0.1013
     47 H13        -1.6535   -6.7164   -0.5627 H         1 <0>         0.1094
     48 H14        -2.7301   -5.3097   -0.2782 H         1 <0>         0.1192
     49 H15        -3.0969   -4.0381   -2.3635 H         1 <0>         0.1180
     50 H16        -2.0518   -3.0803   -1.2871 H         1 <0>         0.1025
     51 H17        -0.7164   -3.4207   -3.7523 H         1 <0>         0.3949
     52 H18        -2.6535    0.4841   -4.2646 H         1 <0>         0.1048
     53 H19        -0.9117    0.8299   -4.4947 H         1 <0>         0.0950
     54 H20        -3.8722   -0.3514   -6.5440 H         1 <0>         0.0885
     55 H21        -2.7511   -0.4366   -7.9380 H         1 <0>         0.0926
     56 H22        -2.7925   -3.5688   -5.4062 H         1 <0>         0.0904
     57 H23        -4.0156   -2.2790   -5.3014 H         1 <0>         0.1262
     58 H24        -4.6344   -3.9794   -7.0082 H         1 <0>         0.1417
     59 H25        -4.3516   -2.3868   -7.7505 H         1 <0>         0.1368
     60 H26        -2.3731   -4.5473   -7.5939 H         1 <0>         0.4242
     61 H27        -1.1420   -3.2054   -9.1632 H         1 <0>         0.1436
     62 H28        -2.3890   -1.9519   -8.9614 H         1 <0>         0.1371
     63 H29        -0.4426   -1.4873   -7.5059 H         1 <0>         0.1223
     64 H30        -0.6212   -3.0877   -6.7460 H         1 <0>         0.0913
     65 H31        -2.8083    3.7031   -5.6782 H         1 <0>         0.0893
     66 H32        -1.7657    3.3906   -4.2518 H         1 <0>         0.1004
     67 H33        -1.9410    5.9121   -5.2694 H         1 <0>         0.1050
     68 H34        -0.3480    5.2799   -4.7334 H         1 <0>         0.0905
     69 H35        -1.5165    5.3544   -7.5693 H         1 <0>         0.0931
     70 H36         0.1134    5.8597   -7.0280 H         1 <0>         0.0987
     71 H37        -3.2736   -4.1885   -8.9243 H         1 <0>         0.4388
     72 H38         0.2846   -3.6322   -1.7761 H         1 <0>         0.4206
@<TRIPOS>BOND
     1    1    2 1
     2    1   38 1
     3    1   39 1
     4    1   40 1
     5    2    3 1
     6    2   41 1
     7    2   42 1
     8    3    7 1
     9    3    4 1
    10    3   72 1
    11    4    5 1
    12    4   43 1
    13    4   44 1
    14    5    6 1
    15    5   45 1
    16    5   46 1
    17    6    7 1
    18    6   47 1
    19    6   48 1
    20    7    8 1
    21    7    9 1
    22    9   10 1
    23    9   49 1
    24    9   50 1
    25   10   11 am
    26   10   51 1
    27   11   12 2
    28   11   13 1
    29   13   14 1
    30   13   18 1
    31   13   15 1
    32   15   16 1
    33   15   52 1
    34   15   53 1
    35   16   17 1
    36   16   24 am
    37   17   18 1
    38   17   54 1
    39   17   55 1
    40   18   23 1
    41   18   19 1
    42   19   20 1
    43   19   56 1
    44   19   57 1
    45   20   21 1
    46   20   58 1
    47   20   59 1
    48   21   22 1
    49   21   60 1
    50   21   71 1
    51   22   23 1
    52   22   61 1
    53   22   62 1
    54   23   63 1
    55   23   64 1
    56   24   25 2
    57   24   26 1
    58   26   27 1
    59   26   31 1
    60   26   28 1
    61   28   29 1
    62   28   65 1
    63   28   66 1
    64   29   30 1
    65   29   67 1
    66   29   68 1
    67   30   31 1
    68   30   69 1
    69   30   70 1
    70   31   32 am
    71   32   33 2
    72   32   34 1
    73   34   35 1
    74   34   36 1
    75   34   37 1
@<TRIPOS>MOLECULE
ZINC39711464
   65    68     0     0     0
SMALL
USER_CHARGES

@<TRIPOS>ATOM
      1 C1          0.8216    1.5722   -0.1459 C.3       1 <0>        -0.1917
      2 C2          0.8700    0.0432   -0.1683 C.3       1 <0>        -0.0093
      3 N1          1.3554   -0.4504    1.1273 N.4       1 <0>        -0.3903
      4 C3          0.3867   -0.1059    2.1763 C.3       1 <0>        -0.0030
      5 C4          0.9009   -0.6034    3.5291 C.3       1 <0>         0.0253
      6 N2          1.0906   -2.0597    3.4724 N.3       1 <0>        -0.5282
      7 C5          2.0393   -2.4216    2.4098 C.3       1 <0>         0.0106
      8 C6          1.5157   -1.9092    1.0663 C.3       1 <0>        -0.0005
      9 C7          1.5305   -2.5843    4.7721 C.3       1 <0>         0.1933
     10 H1          2.5286   -2.2080    4.9967 H         1 <0>         0.1181
     11 C8          0.5717   -2.1368    5.8451 C.2       1 <0>         0.1165
     12 N3         -0.7374   -2.1621    5.7849 N.2       1 <0>        -0.2629
     13 N4         -1.1959   -1.6990    6.8964 N.2       1 <0>        -0.0517
     14 N5         -0.2132   -1.3788    7.6640 N.2       1 <0>        -0.0492
     15 N6          0.8933   -1.6389    7.0535 N.pl3     1 <0>        -0.2836
     16 C9          2.2456   -1.4284    7.5761 C.3       1 <0>         0.0923
     17 C10         2.7217   -0.0219    7.2073 C.3       1 <0>         0.0523
     18 O1          4.0409    0.1834    7.7170 O.3       1 <0>        -0.3776
     19 C11         4.5822    1.4734    7.4259 C.3       1 <0>         0.0305
     20 C12         1.5614   -4.1131    4.7210 C.3       1 <0>        -0.1343
     21 H2          2.2429   -4.4040    3.9216 H         1 <0>         0.1894
     22 C13         0.1732   -4.5942    4.3468 C.2       1 <0>         0.1560
     23 C14        -0.4510   -5.4391    5.2156 C.ar      1 <0>        -0.1450
     24 C15        -1.7922   -5.9501    4.9315 C.ar      1 <0>        -0.0336
     25 C16        -2.3775   -6.7916    5.8284 C.ar      1 <0>         0.0930
     26 C17        -1.7205   -7.1704    7.0052 C.ar      1 <0>         0.0294
     27 C18        -0.4765   -6.7291    7.3227 C.ar      1 <0>        -0.1896
     28 C19         0.2146   -5.8554    6.4624 C.ar      1 <0>         0.3316
     29 N7          1.4358   -5.4305    6.7869 N.am      1 <0>        -0.5942
     30 C20         2.1396   -4.6093    6.0271 C.2       1 <0>         0.5144
     31 O2          3.2498   -4.2556    6.3770 O.2       1 <0>        -0.4246
     32 O3         -3.6233   -7.2732    5.5758 O.3       1 <0>        -0.2950
     33 C21        -4.1891   -8.1518    6.5504 C.3       1 <0>         0.0430
     34 C22        -5.5838   -8.5870    6.0962 C.3       1 <0>        -0.1579
     35 H3          1.8212    1.9647    0.0410 H         1 <0>         0.0814
     36 H4          0.4614    1.9385   -1.1073 H         1 <0>         0.1119
     37 H5          0.1478    1.9029    0.6445 H         1 <0>         0.0802
     38 H6         -0.1296   -0.3493   -0.3552 H         1 <0>         0.1339
     39 H7          1.5438   -0.2875   -0.9587 H         1 <0>         0.1357
     40 H8          0.2589    0.9760    2.2118 H         1 <0>         0.1453
     41 H9         -0.5708   -0.5778    1.9558 H         1 <0>         0.1472
     42 H10         1.8518   -0.1214    3.7563 H         1 <0>         0.0719
     43 H11         0.1753   -0.3610    4.3054 H         1 <0>         0.1235
     44 H12         3.0089   -1.9696    2.6186 H         1 <0>         0.0816
     45 H13         2.1442   -3.5058    2.3697 H         1 <0>         0.1292
     46 H14         0.5524   -2.3719    0.8515 H         1 <0>         0.1449
     47 H15         2.2249   -2.1642    0.2789 H         1 <0>         0.1477
     48 H16         2.2369   -1.5363    8.6607 H         1 <0>         0.1386
     49 H17         2.9213   -2.1659    7.1430 H         1 <0>         0.1261
     50 H18         2.7304    0.0860    6.1227 H         1 <0>         0.0490
     51 H19         2.0460    0.7156    7.6404 H         1 <0>         0.0729
     52 H20         5.5849    1.5500    7.8464 H         1 <0>         0.1046
     53 H21         4.6295    1.6123    6.3458 H         1 <0>         0.0450
     54 H22         3.9451    2.2420    7.8635 H         1 <0>         0.0535
     55 H23        -0.3021   -4.2799    3.4293 H         1 <0>         0.2087
     56 H24        -2.3086   -5.6655    4.0267 H         1 <0>         0.1835
     57 H25        -2.2233   -7.8398    7.6875 H         1 <0>         0.1760
     58 H26        -0.0132   -7.0511    8.2436 H         1 <0>         0.1785
     59 H27        -3.5527   -9.0297    6.6612 H         1 <0>         0.0740
     60 H28        -4.2636   -7.6340    7.5067 H         1 <0>         0.0739
     61 H29        -6.0154   -9.2572    6.8396 H         1 <0>         0.0920
     62 H30        -6.2203   -7.7091    5.9854 H         1 <0>         0.0741
     63 H31        -5.5093   -9.1048    5.1399 H         1 <0>         0.0739
     64 H32         1.8255   -5.7374    7.6204 H         1 <0>         0.4448
     65 H33         2.2449   -0.0231    1.3380 H         1 <0>         0.4228
@<TRIPOS>BOND
     1    1    2 1
     2    1   35 1
     3    1   36 1
     4    1   37 1
     5    2    3 1
     6    2   38 1
     7    2   39 1
     8    3    8 1
     9    3    4 1
    10    3   65 1
    11    4    5 1
    12    4   40 1
    13    4   41 1
    14    5    6 1
    15    5   42 1
    16    5   43 1
    17    6    7 1
    18    6    9 1
    19    7    8 1
    20    7   44 1
    21    7   45 1
    22    8   46 1
    23    8   47 1
    24    9   10 1
    25    9   11 1
    26    9   20 1
    27   11   15 1
    28   11   12 2
    29   12   13 1
    30   13   14 2
    31   14   15 1
    32   15   16 1
    33   16   17 1
    34   16   48 1
    35   16   49 1
    36   17   18 1
    37   17   50 1
    38   17   51 1
    39   18   19 1
    40   19   52 1
    41   19   53 1
    42   19   54 1
    43   20   21 1
    44   20   30 1
    45   20   22 1
    46   22   23 2
    47   22   55 1
    48   23   28 ar
    49   23   24 ar
    50   24   25 ar
    51   24   56 1
    52   25   26 ar
    53   25   32 1
    54   26   27 ar
    55   26   57 1
    56   27   28 ar
    57   27   58 1
    58   28   29 2
    59   29   30 am
    60   29   64 1
    61   30   31 2
    62   32   33 1
    63   33   34 1
    64   33   59 1
    65   33   60 1
    66   34   61 1
    67   34   62 1
    68   34   63 1
@<TRIPOS>MOLECULE
ZINC63708273
   67    71     0     0     0
SMALL
USER_CHARGES

@<TRIPOS>ATOM
      1 C1          2.2229    1.0476   -0.8784 C.3       1 <0>        -0.1513
      2 C2          1.6665   -0.3603   -0.6569 C.3       1 <0>         0.0538
      3 O1          1.8020   -0.7148    0.7208 O.3       1 <0>        -0.3270
      4 C3          1.3526   -1.9441    1.0890 C.ar      1 <0>         0.1123
      5 C4          0.7987   -2.7928    0.1441 C.ar      1 <0>        -0.1865
      6 C5          0.3422   -4.0423    0.5200 C.ar      1 <0>        -0.0775
      7 C6          0.4369   -4.4495    1.8381 C.ar      1 <0>        -0.1326
      8 C7          0.9884   -3.6092    2.7865 C.ar      1 <0>        -0.0890
      9 C8          1.4531   -2.3557    2.4159 C.ar      1 <0>         0.0928
     10 N1          2.0171   -1.5038    3.3749 N.am      1 <0>        -0.6398
     11 C9          2.5673   -2.0179    4.4927 C.2       1 <0>         0.5236
     12 O2          2.6648   -3.2199    4.6232 O.2       1 <0>        -0.4912
     13 C10         3.0614   -1.0994    5.5805 C.3       1 <0>        -0.1543
     14 S1          3.7420   -2.0860    6.9421 S.3       1 <0>        -0.0371
     15 C11         4.2852   -0.8483    8.1520 C.3       1 <0>         0.3559
     16 H1          4.7066   -1.3892    8.9993 H         1 <0>         0.1868
     17 N2          3.0890   -0.1431    8.6293 N.pl3     1 <0>        -0.6382
     18 C12         3.0092    1.1740    8.4981 C.ar      1 <0>         0.3316
     19 C13         1.8686    1.8730    8.9499 C.ar      1 <0>        -0.1986
     20 C14         1.8072    3.2238    8.8061 C.ar      1 <0>         0.0606
     21 C15         2.8462    3.9430    8.2210 C.ar      1 <0>        -0.1386
     22 C16         3.9723    3.3283    7.7648 C.ar      1 <0>        -0.0170
     23 C17         4.1017    1.9339    7.8824 C.ar      1 <0>        -0.2053
     24 C18         5.2600    1.2801    7.4169 C.2       1 <0>         0.4809
     25 N3          5.3677   -0.0797    7.5387 N.pl3     1 <0>        -0.3810
     26 N4          6.6097   -0.4274    6.9932 N.pl3     1 <0>        -0.3534
     27 C19         7.1813    0.7234    6.5738 C.cat     1 <0>         0.5170
     28 N5          6.3780    1.7237    6.8300 N.pl3     1 <0>        -0.5226
     29 C20         8.5331    0.8369    5.9175 C.3       1 <0>        -0.1012
     30 C21         8.3761    0.7087    4.4010 C.3       1 <0>        -0.0456
     31 C22         9.7279    0.8222    3.7446 C.2       1 <0>        -0.1873
     32 C23        10.5475   -0.1639    3.3738 C.2       1 <0>         0.0184
     33 N6         11.6742    0.3323    2.8164 N.2       1 <0>        -0.1633
     34 N7         11.7195    1.5637    2.7629 N.2       1 <0>        -0.1165
     35 C24        10.4711    2.0848    3.3455 C.3       1 <0>        -0.0364
     36 H2          9.9036    2.6484    2.6050 H         1 <0>         0.1546
     37 C25        10.7691    2.9482    4.5729 C.3       1 <0>        -0.1181
     38 C26        10.2559   -1.6316    3.5524 C.3       1 <0>        -0.1017
     39 H3          3.2764    1.0700   -0.5994 H         1 <0>         0.0622
     40 H4          2.1196    1.3180   -1.9292 H         1 <0>         0.0863
     41 H5          1.6693    1.7579   -0.2643 H         1 <0>         0.0654
     42 H6          0.6130   -0.3826   -0.9359 H         1 <0>         0.0692
     43 H7          2.2201   -1.0705   -1.2710 H         1 <0>         0.0676
     44 H8          0.7233   -2.4778   -0.8862 H         1 <0>         0.1386
     45 H9         -0.0898   -4.7022   -0.2178 H         1 <0>         0.1358
     46 H10         0.0787   -5.4265    2.1271 H         1 <0>         0.1354
     47 H11         1.0611   -3.9298    3.8153 H         1 <0>         0.1489
     48 H12         2.0117   -0.5441    3.2342 H         1 <0>         0.4153
     49 H13         3.8380   -0.4474    5.1806 H         1 <0>         0.1104
     50 H14         2.2331   -0.4942    5.9490 H         1 <0>         0.1315
     51 H15         1.0493    1.3378    9.4068 H         1 <0>         0.1740
     52 H16         0.9314    3.7515    9.1537 H         1 <0>         0.1695
     53 H17         2.7565    5.0151    8.1263 H         1 <0>         0.1648
     54 H18         4.7630    3.9101    7.3147 H         1 <0>         0.1535
     55 H19         6.9862   -1.3190    6.9294 H         1 <0>         0.5090
     56 H20         8.9730    1.8050    6.1567 H         1 <0>         0.1642
     57 H21         9.1828    0.0421    6.2839 H         1 <0>         0.1626
     58 H22         7.9361   -0.2594    4.1617 H         1 <0>         0.1049
     59 H23         7.7264    1.5035    4.0345 H         1 <0>         0.1053
     60 H24        11.3846    2.3837    5.2734 H         1 <0>         0.0689
     61 H25        11.3020    3.8474    4.2639 H         1 <0>         0.0915
     62 H26         9.8330    3.2284    5.0560 H         1 <0>         0.0662
     63 H27         9.7385   -2.0092    2.6705 H         1 <0>         0.0920
     64 H28        11.1918   -2.1745    3.6848 H         1 <0>         0.0945
     65 H29         9.6265   -1.7727    4.4311 H         1 <0>         0.0695
     66 H30         2.3618   -0.6376    9.0385 H         1 <0>         0.4722
     67 H31         6.5649    2.6526    6.6221 H         1 <0>         0.4934
@<TRIPOS>BOND
     1    1    2 1
     2    1   39 1
     3    1   40 1
     4    1   41 1
     5    2    3 1
     6    2   42 1
     7    2   43 1
     8    3    4 1
     9    4    9 ar
    10    4    5 ar
    11    5    6 ar
    12    5   44 1
    13    6    7 ar
    14    6   45 1
    15    7    8 ar
    16    7   46 1
    17    8    9 ar
    18    8   47 1
    19    9   10 1
    20   10   11 am
    21   10   48 1
    22   11   12 2
    23   11   13 1
    24   13   14 1
    25   13   49 1
    26   13   50 1
    27   14   15 1
    28   15   16 1
    29   15   25 1
    30   15   17 1
    31   17   18 2
    32   17   66 1
    33   18   23 ar
    34   18   19 ar
    35   19   20 ar
    36   19   51 1
    37   20   21 ar
    38   20   52 1
    39   21   22 ar
    40   21   53 1
    41   22   23 ar
    42   22   54 1
    43   23   24 2
    44   24   28 1
    45   24   25 1
    46   25   26 1
    47   26   27 1
    48   26   55 1
    49   27   28 2
    50   27   29 1
    51   28   67 1
    52   29   30 1
    53   29   56 1
    54   29   57 1
    55   30   31 1
    56   30   58 1
    57   30   59 1
    58   31   35 1
    59   31   32 2
    60   32   33 1
    61   32   38 1
    62   33   34 2
    63   34   35 1
    64   35   36 1
    65   35   37 1
    66   37   60 1
    67   37   61 1
    68   37   62 1
    69   38   63 1
    70   38   64 1
    71   38   65 1
@<TRIPOS>MOLECULE
ZINC64137069
   55    58     0     0     0
SMALL
USER_CHARGES

@<TRIPOS>ATOM
      1 C1         -0.0173    1.4248    0.0099 C.3       1 <0>         0.0076
      2 O1          0.0021   -0.0041    0.0020 O.3       1 <0>        -0.2801
      3 C2         -1.1976   -0.6361    0.0101 C.ar      1 <0>         0.2975
      4 C3         -2.3719    0.1406    0.0197 C.ar      1 <0>        -0.2077
      5 C4         -3.5968   -0.4279    0.0280 C.ar      1 <0>         0.0198
      6 C5         -3.7041   -1.8928    0.0265 C.ar      1 <0>        -0.1709
      7 C6         -4.7640   -2.7308    0.0332 C.2       1 <0>         0.0550
      8 C7         -4.1933   -4.1311    0.0267 C.3       1 <0>         0.0689
      9 N1         -2.7349   -3.9717    0.0160 N.pl3     1 <0>        -0.5937
     10 C8         -2.4553   -2.6887    0.0159 C.ar      1 <0>         0.3498
     11 C9         -1.2205   -1.9933    0.0030 C.ar      1 <0>        -0.2720
     12 C10        -6.2213   -2.3472    0.0447 C.3       1 <0>        -0.1015
     13 C11        -6.7573   -2.3367   -1.3883 C.3       1 <0>         0.1238
     14 N2         -8.1740   -1.9637   -1.3771 N.am      1 <0>        -0.7258
     15 C12        -8.8603   -1.8887   -2.5346 C.2       1 <0>         0.5358
     16 O2         -8.3051   -2.1300   -3.5855 O.2       1 <0>        -0.5016
     17 C13       -10.3176   -1.5051   -2.5230 C.3       1 <0>        -0.1508
     18 S1        -10.9531   -1.4927   -4.2220 S.3       1 <0>        -0.0271
     19 C14       -12.6941   -1.0187   -4.0359 C.3       1 <0>         0.2451
     20 H1        -13.1826   -0.9920   -5.0100 H         1 <0>         0.1552
     21 N3        -13.3917   -1.9729   -3.1391 N.3       1 <0>        -0.4760
     22 N4        -14.2705   -1.0917   -2.3504 N.4       1 <0>        -0.2634
     23 N5        -13.4543    0.1186   -2.1845 N.3       1 <0>        -0.1976
     24 N6        -12.7958    0.2959   -3.3800 N.pl3     1 <0>        -0.5105
     25 C15       -12.3098    1.5053   -3.8820 C.ar      1 <0>         0.2170
     26 C16       -11.6651    1.5396   -5.1123 C.ar      1 <0>        -0.1429
     27 C17       -11.1860    2.7367   -5.6065 C.ar      1 <0>        -0.0585
     28 C18       -11.3466    3.9013   -4.8783 C.ar      1 <0>        -0.1223
     29 C19       -11.9881    3.8713   -3.6525 C.ar      1 <0>         0.0006
     30 C20       -12.4751    2.6769   -3.1550 C.ar      1 <0>        -0.1489
     31 Cl1       -12.1870    5.3357   -2.7416 Cl        1 <0>        -0.0407
     32 H2          1.0053    1.8021    0.0021 H         1 <0>         0.1262
     33 H3         -0.5445    1.7859   -0.8732 H         1 <0>         0.0765
     34 H4         -0.5275    1.7763    0.9067 H         1 <0>         0.0767
     35 H5         -2.2911    1.2175    0.0207 H         1 <0>         0.1666
     36 H6         -4.4852    0.1861    0.0360 H         1 <0>         0.1659
     37 H7         -4.5059   -4.6683    0.9222 H         1 <0>         0.1688
     38 H8         -4.5194   -4.6655   -0.8656 H         1 <0>         0.1676
     39 H9         -0.2928   -2.5461   -0.0088 H         1 <0>         0.1686
     40 H10        -6.7825   -3.0697    0.6373 H         1 <0>         0.1183
     41 H11        -6.3323   -1.3546    0.4814 H         1 <0>         0.1142
     42 H12        -6.1961   -1.6142   -1.9808 H         1 <0>         0.0842
     43 H13        -6.6463   -3.3292   -1.8250 H         1 <0>         0.0844
     44 H14        -8.6181   -1.7708   -0.5366 H         1 <0>         0.4076
     45 H15       -10.8788   -2.2276   -1.9305 H         1 <0>         0.1250
     46 H16       -10.4286   -0.5126   -2.0863 H         1 <0>         0.1153
     47 H17       -13.9311   -2.6400   -3.6703 H         1 <0>         0.4169
     48 H18       -15.1175   -0.8845   -2.8582 H         1 <0>         0.4498
     49 H19       -12.8006    0.0124   -1.4232 H         1 <0>         0.3876
     50 H20       -11.5385    0.6306   -5.6815 H         1 <0>         0.1378
     51 H21       -10.6849    2.7634   -6.5628 H         1 <0>         0.1497
     52 H22       -10.9703    4.8360   -5.2669 H         1 <0>         0.1459
     53 H23       -12.9797    2.6544   -2.2004 H         1 <0>         0.1410
     54 H24        -2.0863   -4.6929    0.0100 H         1 <0>         0.4571
     55 H25       -14.4812   -1.5060   -1.4548 H         1 <0>         0.4639
@<TRIPOS>BOND
     1    1    2 1
     2    1   32 1
     3    1   33 1
     4    1   34 1
     5    2    3 1
     6    3   11 ar
     7    3    4 ar
     8    4    5 ar
     9    4   35 1
    10    5    6 ar
    11    5   36 1
    12    6   10 ar
    13    6    7 2
    14    7    8 1
    15    7   12 1
    16    8    9 1
    17    8   37 1
    18    8   38 1
    19    9   10 2
    20    9   54 1
    21   10   11 ar
    22   11   39 1
    23   12   13 1
    24   12   40 1
    25   12   41 1
    26   13   14 1
    27   13   42 1
    28   13   43 1
    29   14   15 am
    30   14   44 1
    31   15   16 2
    32   15   17 1
    33   17   18 1
    34   17   45 1
    35   17   46 1
    36   18   19 1
    37   19   20 1
    38   19   24 1
    39   19   21 1
    40   21   22 1
    41   21   47 1
    42   22   23 1
    43   22   48 1
    44   22   55 1
    45   23   24 1
    46   23   49 1
    47   24   25 1
    48   25   30 ar
    49   25   26 ar
    50   26   27 ar
    51   26   50 1
    52   27   28 ar
    53   27   51 1
    54   28   29 ar
    55   28   52 1
    56   29   30 ar
    57   29   31 1
    58   30   53 1
@<TRIPOS>MOLECULE
ZINC06014992
   70    74     0     0     0
SMALL
USER_CHARGES
3-[[4-(4-fluorophenyl)-3,6-dihydro-2H-pyridin-1-yl]-(1-tert-butyltetrazol-5-yl)-methyl]-6,7-dimethoxy-1H-quinolin-2-one
@<TRIPOS>ATOM
      1 C1         -4.0715    5.8980   -2.2988 C.3       1 <0>        -0.1733
      2 C2         -5.5984    5.8034   -2.2811 C.3       1 <0>         0.1512
      3 C3         -6.1653    6.4694   -3.5365 C.3       1 <0>        -0.1558
      4 C4         -6.1391    6.5137   -1.0385 C.3       1 <0>        -0.1706
      5 N1         -6.0001    4.3948   -2.2519 N.pl3     1 <0>        -0.2730
      6 C5         -5.6537    3.4838   -1.3237 C.2       1 <0>         0.1116
      7 N2         -6.2197    2.3549   -1.6749 N.2       1 <0>        -0.2404
      8 N3         -6.8856    2.5637   -2.7579 N.2       1 <0>        -0.0594
      9 N4         -6.7526    3.7946   -3.1110 N.2       1 <0>        -0.0529
     10 C6         -4.7795    3.7152   -0.1181 C.3       1 <0>         0.2096
     11 H1         -4.5831    4.7820   -0.0111 H         1 <0>         0.1621
     12 C7         -3.4761    2.9795   -0.2941 C.2       1 <0>        -0.2875
     13 C8         -2.3146    3.6755   -0.3908 C.2       1 <0>         0.0733
     14 C9         -1.0671    2.9332   -0.5663 C.ar      1 <0>        -0.1548
     15 C10         0.1590    3.5999   -0.6882 C.ar      1 <0>        -0.1128
     16 C11         1.3167    2.8722   -0.8525 C.ar      1 <0>         0.0886
     17 C12         1.2711    1.4748   -0.8982 C.ar      1 <0>         0.1986
     18 C13         0.0665    0.8073   -0.7793 C.ar      1 <0>        -0.2386
     19 C14        -1.1115    1.5264   -0.6178 C.ar      1 <0>         0.2210
     20 N5         -2.3248    0.8786   -0.5029 N.am      1 <0>        -0.6168
     21 H2         -2.3551   -0.1204   -0.5361 H         1 <0>         0.4341
     22 C15        -3.4665    1.5711   -0.3470 C.2       1 <0>         0.5434
     23 O1         -4.5202    0.9656   -0.2493 O.2       1 <0>        -0.5204
     24 O2          2.4196    0.7682   -1.0611 O.3       1 <0>        -0.2862
     25 C16         2.3053   -0.6557   -1.1000 C.3       1 <0>         0.0163
     26 O3          2.5096    3.5150   -0.9714 O.3       1 <0>        -0.2963
     27 C17         2.4854    4.9428   -0.9163 C.3       1 <0>         0.0212
     28 C18        -6.6832    3.9973    1.3555 C.3       1 <0>        -0.0050
     29 C19        -7.5105    3.2531    2.4067 C.3       1 <0>        -0.1115
     30 C20        -6.6324    2.8720    3.5659 C.2       1 <0>        -0.0424
     31 C21        -5.3196    2.8702    3.4916 C.2       1 <0>        -0.1816
     32 C22        -4.5690    3.2540    2.2490 C.3       1 <0>         0.0435
     33 C23        -7.2708    2.4841    4.8413 C.ar      1 <0>        -0.0934
     34 C24        -8.0583    1.3340    4.9087 C.ar      1 <0>        -0.0691
     35 C25        -8.6472    0.9734    6.1027 C.ar      1 <0>        -0.1503
     36 C26        -8.4676    1.7574    7.2312 C.ar      1 <0>         0.1187
     37 C27        -7.6912    2.9035    7.1683 C.ar      1 <0>        -0.1516
     38 C28        -7.0929    3.2697    5.9808 C.ar      1 <0>        -0.0689
     39 F1         -9.0512    1.4028    8.3969 F         1 <0>        -0.1301
     40 H3         -3.6863    5.3920   -3.1840 H         1 <0>         0.0825
     41 H4         -3.7726    6.9461   -2.3205 H         1 <0>         0.1083
     42 H5         -3.6676    5.4235   -1.4044 H         1 <0>         0.0570
     43 H6         -7.2531    6.4020   -3.5239 H         1 <0>         0.0814
     44 H7         -5.8664    7.5174   -3.5582 H         1 <0>         0.0949
     45 H8         -5.7801    5.9634   -4.4217 H         1 <0>         0.0799
     46 H9         -5.6536    6.1109   -0.1496 H         1 <0>         0.0558
     47 H10        -5.9338    7.5816   -1.1123 H         1 <0>         0.1100
     48 H11        -7.2151    6.3546   -0.9684 H         1 <0>         0.0815
     49 H12        -2.3135    4.7548   -0.3518 H         1 <0>         0.1564
     50 H13         0.1962    4.6787   -0.6532 H         1 <0>         0.1557
     51 H14         0.0404   -0.2717   -0.8163 H         1 <0>         0.1565
     52 H15         3.2934   -1.0960   -1.2339 H         1 <0>         0.1150
     53 H16         1.8729   -1.0112   -0.1647 H         1 <0>         0.0650
     54 H17         1.6624   -0.9461   -1.9310 H         1 <0>         0.0649
     55 H18         3.4995    5.3277   -1.0233 H         1 <0>         0.1106
     56 H19         1.8637    5.3271   -1.7250 H         1 <0>         0.0592
     57 H20         2.0745    5.2625    0.0413 H         1 <0>         0.0597
     58 H21        -6.4129    4.9834    1.7332 H         1 <0>         0.1386
     59 H22        -7.2616    4.1028    0.4377 H         1 <0>         0.1244
     60 H23        -8.3154    3.8985    2.7583 H         1 <0>         0.1298
     61 H24        -7.9352    2.3526    1.9630 H         1 <0>         0.1111
     62 H25        -4.7549    2.5790    4.3650 H         1 <0>         0.1561
     63 H26        -3.7469    2.5554    2.0936 H         1 <0>         0.1355
     64 H27        -4.1671    4.2604    2.3664 H         1 <0>         0.1417
     65 H28        -8.2025    0.7248    4.0286 H         1 <0>         0.1359
     66 H29        -9.2526    0.0808    6.1572 H         1 <0>         0.1438
     67 H30        -7.5542    3.5108    8.0507 H         1 <0>         0.1436
     68 H31        -6.4874    4.1628    5.9330 H         1 <0>         0.1365
     69 N6         -5.4714    3.1973    1.0841 N.4       1 <0>        -0.3920
     70 H32        -5.7442    2.2215    0.9182 H         1 <0>         0.4502
@<TRIPOS>BOND
     1    1    2 1
     2    1   40 1
     3    1   41 1
     4    1   42 1
     5    2    3 1
     6    2    4 1
     7    2    5 1
     8    3   43 1
     9    3   44 1
    10    3   45 1
    11    4   46 1
    12    4   47 1
    13    4   48 1
    14    5    9 1
    15    5    6 1
    16    6    7 2
    17    6   10 1
    18    7    8 1
    19    8    9 2
    20   10   11 1
    21   10   12 1
    22   10   69 1
    23   12   22 1
    24   12   13 2
    25   13   14 1
    26   13   49 1
    27   14   19 ar
    28   14   15 ar
    29   15   16 ar
    30   15   50 1
    31   16   17 ar
    32   16   26 1
    33   17   18 ar
    34   17   24 1
    35   18   19 ar
    36   18   51 1
    37   19   20 1
    38   20   21 1
    39   20   22 am
    40   22   23 2
    41   24   25 1
    42   25   52 1
    43   25   53 1
    44   25   54 1
    45   26   27 1
    46   27   55 1
    47   27   56 1
    48   27   57 1
    49   28   29 1
    50   28   58 1
    51   28   59 1
    52   28   69 1
    53   29   30 1
    54   29   60 1
    55   29   61 1
    56   30   31 2
    57   30   33 1
    58   31   32 1
    59   31   62 1
    60   32   63 1
    61   32   64 1
    62   32   69 1
    63   33   38 ar
    64   33   34 ar
    65   34   35 ar
    66   34   65 1
    67   35   36 ar
    68   35   66 1
    69   36   37 ar
    70   36   39 1
    71   37   38 ar
    72   37   67 1
    73   38   68 1
    74   69   70 1
@<TRIPOS>MOLECULE
ZINC11787990
   67    71     0     0     0
SMALL
USER_CHARGES
methyl 1-[(3R,5S)-1-[(2-allyloxyphenyl)methyl]-5-(1,3-dihydroisobenzofuran-5-ylcarbamoyl)pyrrolidin-3-yl]triazole-4-carboxylate
@<TRIPOS>ATOM
      1 C1          0.6949   -5.1696    5.1595 C.3       1 <0>         0.0348
      2 O1          0.5359   -3.7272    5.1106 O.3       1 <0>        -0.3351
      3 C2          0.8297   -3.1186    3.9447 C.2       1 <0>         0.5508
      4 O2          1.2083   -3.7753    2.9950 O.2       1 <0>        -0.4968
      5 C3          0.6918   -1.6564    3.8215 C.2       1 <0>        -0.0597
      6 C4          0.9559   -0.9205    2.7006 C.2       1 <0>         0.0812
      7 N1          0.7033    0.3667    3.0102 N.pl3     1 <0>        -0.3716
      8 N2          0.2859    0.3879    4.3485 N.2       1 <0>        -0.0269
      9 N3          0.2852   -0.8206    4.7929 N.2       1 <0>        -0.1626
     10 C5          0.8439    1.5225    2.1210 C.3       1 <0>         0.1412
     11 H1          0.9961    2.4310    2.7036 H         1 <0>         0.1656
     12 C6         -0.4055    1.6624    1.2213 C.3       1 <0>        -0.1502
     13 C7          0.0340    0.9682   -0.0923 C.3       1 <0>        -0.0027
     14 H2         -0.0634   -0.1140   -0.0067 H         1 <0>         0.1719
     15 C8          2.0182    1.3085    1.1480 C.3       1 <0>        -0.0251
     16 C9          2.1792    0.4384   -1.1146 C.3       1 <0>         0.0635
     17 C10         3.5463    0.9962   -1.4165 C.ar      1 <0>        -0.1929
     18 C11         3.7781    1.6490   -2.6119 C.ar      1 <0>        -0.0428
     19 C12         5.0307    2.1652   -2.8873 C.ar      1 <0>        -0.1486
     20 C13         6.0573    2.0204   -1.9722 C.ar      1 <0>        -0.0397
     21 C14         5.8320    1.3640   -0.7780 C.ar      1 <0>        -0.2033
     22 C15         4.5743    0.8497   -0.4969 C.ar      1 <0>         0.1527
     23 O3          4.3503    0.2030    0.6772 O.3       1 <0>        -0.3281
     24 C16         5.4551    0.0895    1.5765 C.3       1 <0>         0.0878
     25 C17         5.0208   -0.6516    2.8147 C.2       1 <0>        -0.1848
     26 C18         5.7794   -1.5967    3.3122 C.2       1 <0>        -0.1374
     27 C19        -0.7651    1.4815   -1.2624 C.2       1 <0>         0.5150
     28 O4         -0.2107    2.0811   -2.1591 O.2       1 <0>        -0.4972
     29 N4         -2.0959    1.2742   -1.3123 N.am      1 <0>        -0.6399
     30 C20        -2.8547    1.8443   -2.3405 C.ar      1 <0>         0.1252
     31 C21        -3.9669    1.1764   -2.8368 C.ar      1 <0>        -0.1234
     32 C22        -4.7151    1.7412   -3.8517 C.ar      1 <0>        -0.0709
     33 C23        -4.3575    2.9686   -4.3722 C.ar      1 <0>        -0.1251
     34 C24        -3.2478    3.6378   -3.8788 C.ar      1 <0>        -0.1107
     35 C25        -2.5003    3.0819   -2.8627 C.ar      1 <0>        -0.0887
     36 C26        -3.1274    4.9335   -4.6466 C.3       1 <0>         0.0889
     37 O5         -3.9256    4.7663   -5.8327 O.3       1 <0>        -0.3540
     38 C27        -4.9547    3.8319   -5.4591 C.3       1 <0>         0.0854
     39 H3          0.0457   -5.6321    4.4160 H         1 <0>         0.0694
     40 H4          1.7323   -5.4283    4.9474 H         1 <0>         0.0692
     41 H5          0.4259   -5.5313    6.1520 H         1 <0>         0.1119
     42 H6          1.3012   -1.2979    1.7494 H         1 <0>         0.2041
     43 H7         -0.6372    2.7126    1.0437 H         1 <0>         0.1355
     44 H8         -1.2585    1.1474    1.6630 H         1 <0>         0.1388
     45 H9          2.4770    0.3362    1.3278 H         1 <0>         0.1622
     46 H10         2.7590    2.0978    1.2762 H         1 <0>         0.1606
     47 H11         2.2819   -0.5327   -0.6303 H         1 <0>         0.1359
     48 H12         1.6203    0.3239   -2.0434 H         1 <0>         0.1425
     49 H13         2.9791    1.7598   -3.3300 H         1 <0>         0.1431
     50 H14         5.2088    2.6788   -3.8205 H         1 <0>         0.1397
     51 H15         7.0361    2.4206   -2.1916 H         1 <0>         0.1397
     52 H16         6.6340    1.2515   -0.0634 H         1 <0>         0.1405
     53 H17         6.2640   -0.4566    1.0911 H         1 <0>         0.0795
     54 H18         5.8030    1.0850    1.8521 H         1 <0>         0.0805
     55 H19         4.0842   -0.4037    3.2919 H         1 <0>         0.1118
     56 H20         5.4682   -2.1278    4.1996 H         1 <0>         0.1137
     57 H21         6.7160   -1.8446    2.8351 H         1 <0>         0.1067
     58 H22        -2.5277    0.7297   -0.6355 H         1 <0>         0.4210
     59 H23        -4.2464    0.2159   -2.4298 H         1 <0>         0.1372
     60 H24        -5.5797    1.2220   -4.2381 H         1 <0>         0.1394
     61 H25        -1.6386    3.6057   -2.4759 H         1 <0>         0.1363
     62 H26        -2.0870    5.1148   -4.9166 H         1 <0>         0.1014
     63 H27        -3.5107    5.7609   -4.0495 H         1 <0>         0.0835
     64 H28        -5.2335    3.2181   -6.3156 H         1 <0>         0.1045
     65 H29        -5.8268    4.3642   -5.0793 H         1 <0>         0.0855
     66 N5          1.4432    1.3631   -0.2009 N.4       1 <0>        -0.3798
     67 H30         1.5073    2.3201   -0.5674 H         1 <0>         0.4398
@<TRIPOS>BOND
     1    1    2 1
     2    1   39 1
     3    1   40 1
     4    1   41 1
     5    2    3 1
     6    3    4 2
     7    3    5 1
     8    5    9 1
     9    5    6 2
    10    6    7 1
    11    6   42 1
    12    7    8 1
    13    7   10 1
    14    8    9 2
    15   10   11 1
    16   10   15 1
    17   10   12 1
    18   12   13 1
    19   12   43 1
    20   12   44 1
    21   13   14 1
    22   13   27 1
    23   13   66 1
    24   15   45 1
    25   15   46 1
    26   15   66 1
    27   16   17 1
    28   16   47 1
    29   16   48 1
    30   16   66 1
    31   17   22 ar
    32   17   18 ar
    33   18   19 ar
    34   18   49 1
    35   19   20 ar
    36   19   50 1
    37   20   21 ar
    38   20   51 1
    39   21   22 ar
    40   21   52 1
    41   22   23 1
    42   23   24 1
    43   24   25 1
    44   24   53 1
    45   24   54 1
    46   25   26 2
    47   25   55 1
    48   26   56 1
    49   26   57 1
    50   27   28 2
    51   27   29 am
    52   29   30 1
    53   29   58 1
    54   30   35 ar
    55   30   31 ar
    56   31   32 ar
    57   31   59 1
    58   32   33 ar
    59   32   60 1
    60   33   38 1
    61   33   34 ar
    62   34   35 ar
    63   34   36 1
    64   35   61 1
    65   36   37 1
    66   36   62 1
    67   36   63 1
    68   37   38 1
    69   38   64 1
    70   38   65 1
    71   66   67 1
@<TRIPOS>MOLECULE
ZINC06409203
   70    75     0     0     0
SMALL
USER_CHARGES
3-[(R)-[2-furylmethyl-[[(2S)-tetrahydrofuran-2-yl]methyl]amino]-[1-[[(2S)-tetrahydrofuran-2-yl]methyl]tetrazol-5-yl]methyl]-6-methyl-1H-quinolin-2-one
@<TRIPOS>ATOM
      1 C1          0.7493   -2.2892   -0.3551 C.3       1 <0>        -0.1215
      2 C2          0.9259   -0.8016   -0.5192 C.ar      1 <0>        -0.1063
      3 C3          2.0397   -0.3105   -1.1870 C.ar      1 <0>        -0.0359
      4 C4          2.2212    1.0459   -1.3492 C.ar      1 <0>        -0.1616
      5 C5          1.2798    1.9341   -0.8391 C.ar      1 <0>         0.1978
      6 C6          0.1520    1.4324   -0.1627 C.ar      1 <0>        -0.1531
      7 C7         -0.0115    0.0516   -0.0100 C.ar      1 <0>        -0.0452
      8 C8         -0.8301    2.3753    0.3759 C.2       1 <0>         0.0562
      9 C9         -0.6224    3.7026    0.1917 C.2       1 <0>        -0.2723
     10 C10         0.5257    4.1539   -0.4940 C.2       1 <0>         0.5345
     11 O1          0.6963    5.3515   -0.6432 O.2       1 <0>        -0.4888
     12 N1          1.4358    3.2958   -0.9872 N.am      1 <0>        -0.6243
     13 H1          2.2136    3.6398   -1.4537 H         1 <0>         0.4261
     14 C11        -1.6169    4.6997    0.7281 C.3       1 <0>         0.2112
     15 H2         -2.4566    4.1696    1.1775 H         1 <0>         0.1580
     16 C12        -2.1156    5.5676   -0.3984 C.2       1 <0>         0.1116
     17 N2         -1.4688    6.5522   -0.9730 N.2       1 <0>        -0.2249
     18 N3         -2.2279    7.0455   -1.8899 N.2       1 <0>        -0.0553
     19 N4         -3.3421    6.4010   -1.9150 N.2       1 <0>        -0.0405
     20 N5         -3.3094    5.4784   -1.0137 N.pl3     1 <0>        -0.2807
     21 C13        -4.3731    4.5167   -0.7140 C.3       1 <0>         0.0864
     22 C14        -5.4186    5.1770    0.1871 C.3       1 <0>         0.0614
     23 H3         -4.9391    5.5685    1.0842 H         1 <0>         0.0834
     24 C15        -6.5003    4.1466    0.5763 C.3       1 <0>        -0.1484
     25 C16        -7.7999    4.9948    0.5171 C.3       1 <0>        -0.1556
     26 C17        -7.4700    5.9572   -0.6516 C.3       1 <0>         0.0465
     27 O2         -6.0678    6.2400   -0.5202 O.3       1 <0>        -0.3604
     28 C18        -1.9265    6.4824    2.3371 C.3       1 <0>         0.0921
     29 C19        -2.1320    7.6459    1.4017 C.2       1 <0>        -0.1015
     30 C20        -3.1713    7.8069    0.5630 C.2       1 <0>        -0.1657
     31 C21        -2.9614    9.0271   -0.1196 C.2       1 <0>        -0.1986
     32 C22        -1.8065    9.5387    0.3427 C.2       1 <0>         0.0251
     33 O3         -1.3115    8.7007    1.2681 O.3       1 <0>        -0.1567
     34 C23        -0.3297    4.7166    2.7789 C.3       1 <0>         0.0035
     35 C24         1.0664    4.3012    2.3108 C.3       1 <0>         0.0301
     36 H4          0.9975    3.6840    1.4150 H         1 <0>         0.0939
     37 C25         1.8054    3.5393    3.4333 C.3       1 <0>        -0.1428
     38 C26         3.2716    4.0092    3.3036 C.3       1 <0>        -0.1561
     39 C27         3.2450    4.9994    2.1182 C.3       1 <0>         0.0524
     40 O4          1.8800    5.4676    2.0590 O.3       1 <0>        -0.3653
     41 H5          0.1909   -2.6846   -1.2036 H         1 <0>         0.0783
     42 H6          1.7273   -2.7683   -0.3087 H         1 <0>         0.0745
     43 H7          0.2021   -2.4907    0.5658 H         1 <0>         0.0727
     44 H8          2.7716   -0.9987   -1.5833 H         1 <0>         0.1426
     45 H9          3.0908    1.4179   -1.8705 H         1 <0>         0.1431
     46 H10        -0.8753   -0.3383    0.5079 H         1 <0>         0.1423
     47 H11        -1.7035    2.0213    0.9033 H         1 <0>         0.1584
     48 H12        -4.8447    4.1953   -1.6427 H         1 <0>         0.1292
     49 H13        -3.9481    3.6520   -0.2042 H         1 <0>         0.1173
     50 H14        -6.5365    3.3306   -0.1456 H         1 <0>         0.0892
     51 H15        -6.3302    3.7673    1.5839 H         1 <0>         0.0932
     52 H16        -7.9536    5.5434    1.4463 H         1 <0>         0.0843
     53 H17        -8.6647    4.3741    0.2826 H         1 <0>         0.0944
     54 H18        -8.0511    6.8750   -0.5614 H         1 <0>         0.0956
     55 H19        -7.6708    5.4756   -1.6085 H         1 <0>         0.0697
     56 H20        -2.8779    5.9770    2.5029 H         1 <0>         0.1484
     57 H21        -1.5373    6.8453    3.2884 H         1 <0>         0.1532
     58 H22        -4.0056    7.1331    0.4352 H         1 <0>         0.1533
     59 H23        -3.6051    9.4647   -0.8684 H         1 <0>         0.1580
     60 H24        -1.3558   10.4678    0.0263 H         1 <0>         0.2154
     61 H25        -0.2476    5.2917    3.7012 H         1 <0>         0.1476
     62 H26        -0.9326    3.8264    2.9583 H         1 <0>         0.1432
     63 H27         1.4021    3.8110    4.4088 H         1 <0>         0.0881
     64 H28         1.7318    2.4631    3.2769 H         1 <0>         0.0894
     65 H29         3.5931    4.5131    4.2151 H         1 <0>         0.0869
     66 H30         3.9252    3.1650    3.0842 H         1 <0>         0.0865
     67 H31         3.9239    5.8317    2.3037 H         1 <0>         0.1062
     68 H32         3.5138    4.4904    1.1926 H         1 <0>         0.0636
     69 N6         -0.9479    5.5554    1.7306 N.4       1 <0>        -0.3943
     70 H33        -0.2141    6.1026    1.2655 H         1 <0>         0.4612
@<TRIPOS>BOND
     1    1    2 1
     2    1   41 1
     3    1   42 1
     4    1   43 1
     5    2    7 ar
     6    2    3 ar
     7    3    4 ar
     8    3   44 1
     9    4    5 ar
    10    4   45 1
    11    5   12 1
    12    5    6 ar
    13    6    7 ar
    14    6    8 1
    15    7   46 1
    16    8    9 2
    17    8   47 1
    18    9   10 1
    19    9   14 1
    20   10   11 2
    21   10   12 am
    22   12   13 1
    23   14   15 1
    24   14   16 1
    25   14   69 1
    26   16   20 1
    27   16   17 2
    28   17   18 1
    29   18   19 2
    30   19   20 1
    31   20   21 1
    32   21   22 1
    33   21   48 1
    34   21   49 1
    35   22   23 1
    36   22   27 1
    37   22   24 1
    38   24   25 1
    39   24   50 1
    40   24   51 1
    41   25   26 1
    42   25   52 1
    43   25   53 1
    44   26   27 1
    45   26   54 1
    46   26   55 1
    47   28   29 1
    48   28   56 1
    49   28   57 1
    50   28   69 1
    51   29   33 1
    52   29   30 2
    53   30   31 1
    54   30   58 1
    55   31   32 2
    56   31   59 1
    57   32   33 1
    58   32   60 1
    59   34   35 1
    60   34   61 1
    61   34   62 1
    62   34   69 1
    63   35   36 1
    64   35   40 1
    65   35   37 1
    66   37   38 1
    67   37   63 1
    68   37   64 1
    69   38   39 1
    70   38   65 1
    71   38   66 1
    72   39   40 1
    73   39   67 1
    74   39   68 1
    75   69   70 1
@<TRIPOS>MOLECULE
ZINC35926601
   78    82     0     0     0
SMALL
USER_CHARGES

@<TRIPOS>ATOM
      1 C1         -0.0167    1.3781    0.0096 C.ar      1 <0>        -0.1040
      2 C2          1.1709    2.0855    0.0021 C.ar      1 <0>        -0.1140
      3 C3          2.3773    1.4107   -0.0130 C.ar      1 <0>        -0.1097
      4 C4          2.3960    0.0285   -0.0201 C.ar      1 <0>        -0.1087
      5 C5          1.2084   -0.6789   -0.0117 C.ar      1 <0>        -0.1102
      6 C6          0.0021   -0.0041    0.0020 C.ar      1 <0>        -0.1140
      7 C7          3.7112   -0.7071   -0.0376 C.3       1 <0>        -0.0989
      8 C8          4.1714   -0.9633    1.3989 C.3       1 <0>        -0.0047
      9 N1          5.4533   -1.6804    1.3819 N.4       1 <0>        -0.3870
     10 C9          6.4866   -0.8215    0.7884 C.3       1 <0>        -0.0058
     11 C10         7.8180   -1.5750    0.7532 C.3       1 <0>         0.0277
     12 N2          8.1988   -1.9551    2.1209 N.3       1 <0>        -0.5248
     13 C11         7.1619   -2.7950    2.7371 C.3       1 <0>         0.0238
     14 C12         5.8359   -2.0315    2.7559 C.3       1 <0>         0.0005
     15 C13         9.5023   -2.6324    2.1355 C.3       1 <0>         0.1078
     16 C14         9.9724   -2.7865    3.5590 C.2       1 <0>         0.2247
     17 C15        10.1117   -4.0318    4.0994 C.2       1 <0>        -0.3432
     18 C16        10.5523   -4.1500    5.4295 C.2       1 <0>         0.5425
     19 O1         10.6883   -5.2478    5.9442 O.2       1 <0>        -0.5309
     20 N3         10.8225   -3.0253    6.1260 N.am      1 <0>        -0.6554
     21 H1         11.1280   -3.0834    7.0448 H         1 <0>         0.4123
     22 C17        10.6652   -1.8102    5.5345 C.2       1 <0>         0.6358
     23 N4         10.2565   -1.7079    4.2854 N.2       1 <0>        -0.5765
     24 N5         10.9411   -0.6744    6.2471 N.pl3     1 <0>        -0.5729
     25 C18        10.7573    0.6268    5.5868 C.3       1 <0>         0.1258
     26 C19        10.0772    1.6556    6.4939 C.3       1 <0>        -0.1530
     27 C20         8.9539    1.0070    7.2772 C.3       1 <0>         0.1238
     28 N6          9.5252    0.4297    8.4939 N.am      1 <0>        -0.6046
     29 C21        10.1658   -0.8374    8.5601 C.3       1 <0>         0.0814
     30 C22        11.3952   -0.8141    7.6197 C.3       1 <0>         0.0827
     31 C23         9.4385    1.1491    9.6303 C.2       1 <0>         0.5100
     32 O2          8.9005    2.2360    9.6204 O.2       1 <0>        -0.4976
     33 C24        10.0101    0.6029   10.9133 C.3       1 <0>         0.0387
     34 O3          9.7956    1.5425   11.9684 O.3       1 <0>        -0.2901
     35 C25        10.2544    1.2012   13.2012 C.ar      1 <0>         0.1222
     36 C26        10.9028   -0.0106   13.3904 C.ar      1 <0>        -0.2117
     37 C27        11.3687   -0.3550   14.6445 C.ar      1 <0>        -0.0794
     38 C28        11.1888    0.5066   15.7107 C.ar      1 <0>        -0.1527
     39 C29        10.5425    1.7147   15.5249 C.ar      1 <0>        -0.0769
     40 C30        10.0802    2.0665   14.2715 C.ar      1 <0>        -0.1452
     41 H2         -0.9591    1.9053    0.0259 H         1 <0>         0.1296
     42 H3          1.1563    3.1654    0.0076 H         1 <0>         0.1295
     43 H4          3.3051    1.9634   -0.0196 H         1 <0>         0.1240
     44 H5          1.2231   -1.7588   -0.0176 H         1 <0>         0.1237
     45 H6         -0.9258   -0.5567    0.0082 H         1 <0>         0.1293
     46 H7          3.5884   -1.6586   -0.5549 H         1 <0>         0.0941
     47 H8          4.4573   -0.1052   -0.5563 H         1 <0>         0.0950
     48 H9          4.2941   -0.0118    1.9163 H         1 <0>         0.1322
     49 H10         3.4252   -1.5652    1.9176 H         1 <0>         0.1320
     50 H11         6.1953   -0.5511   -0.2265 H         1 <0>         0.1370
     51 H12         6.5963    0.0822    1.3879 H         1 <0>         0.1392
     52 H13         7.7125   -2.4717    0.1426 H         1 <0>         0.0626
     53 H14         8.5883   -0.9325    0.3265 H         1 <0>         0.1267
     54 H15         7.0456   -3.7118    2.1591 H         1 <0>         0.0641
     55 H16         7.4535   -3.0426    3.7578 H         1 <0>         0.1195
     56 H17         5.9489   -1.1216    3.3453 H         1 <0>         0.1372
     57 H18         5.0622   -2.6580    3.1996 H         1 <0>         0.1346
     58 H19         9.4057   -3.6162    1.6763 H         1 <0>         0.0701
     59 H20        10.2260   -2.0397    1.5760 H         1 <0>         0.1113
     60 H21         9.8868   -4.9120    3.5153 H         1 <0>         0.1493
     61 H22        11.7325    1.0109    5.2876 H         1 <0>         0.0738
     62 H23        10.1474    0.4861    4.6945 H         1 <0>         0.1120
     63 H24        10.8110    2.0655    7.1879 H         1 <0>         0.0757
     64 H25         9.6721    2.4627    5.8835 H         1 <0>         0.0974
     65 H26         8.2077    1.7567    7.5404 H         1 <0>         0.0992
     66 H27         8.4928    0.2217    6.6782 H         1 <0>         0.0762
     67 H28        10.4890   -1.0315    9.5828 H         1 <0>         0.1069
     68 H29         9.4735   -1.6152    8.2377 H         1 <0>         0.0754
     69 H30        11.9499   -1.7462    7.7279 H         1 <0>         0.0918
     70 H31        12.0371    0.0276    7.8796 H         1 <0>         0.1089
     71 H32         9.5175   -0.3379   11.1590 H         1 <0>         0.0938
     72 H33        11.0796    0.4319   10.7908 H         1 <0>         0.0941
     73 H34        11.0430   -0.6843   12.5580 H         1 <0>         0.1240
     74 H35        11.8735   -1.2982   14.7922 H         1 <0>         0.1272
     75 H36        11.5534    0.2354   16.6905 H         1 <0>         0.1274
     76 H37        10.4028    2.3859   16.3595 H         1 <0>         0.1334
     77 H38         9.5793    3.0122   14.1260 H         1 <0>         0.1335
     78 H39         5.3604   -2.5221    0.8334 H         1 <0>         0.4205
@<TRIPOS>BOND
     1    1    6 ar
     2    1    2 ar
     3    1   41 1
     4    2    3 ar
     5    2   42 1
     6    3    4 ar
     7    3   43 1
     8    4    5 ar
     9    4    7 1
    10    5    6 ar
    11    5   44 1
    12    6   45 1
    13    7    8 1
    14    7   46 1
    15    7   47 1
    16    8    9 1
    17    8   48 1
    18    8   49 1
    19    9   14 1
    20    9   10 1
    21    9   78 1
    22   10   11 1
    23   10   50 1
    24   10   51 1
    25   11   12 1
    26   11   52 1
    27   11   53 1
    28   12   13 1
    29   12   15 1
    30   13   14 1
    31   13   54 1
    32   13   55 1
    33   14   56 1
    34   14   57 1
    35   15   16 1
    36   15   58 1
    37   15   59 1
    38   16   23 1
    39   16   17 2
    40   17   18 1
    41   17   60 1
    42   18   19 2
    43   18   20 am
    44   20   21 1
    45   20   22 1
    46   22   23 2
    47   22   24 1
    48   24   30 1
    49   24   25 1
    50   25   26 1
    51   25   61 1
    52   25   62 1
    53   26   27 1
    54   26   63 1
    55   26   64 1
    56   27   28 1
    57   27   65 1
    58   27   66 1
    59   28   29 1
    60   28   31 am
    61   29   30 1
    62   29   67 1
    63   29   68 1
    64   30   69 1
    65   30   70 1
    66   31   32 2
    67   31   33 1
    68   33   34 1
    69   33   71 1
    70   33   72 1
    71   34   35 1
    72   35   40 ar
    73   35   36 ar
    74   36   37 ar
    75   36   73 1
    76   37   38 ar
    77   37   74 1
    78   38   39 ar
    79   38   75 1
    80   39   40 ar
    81   39   76 1
    82   40   77 1
@<TRIPOS>MOLECULE
ZINC20207908
   57    60     0     0     0
SMALL
USER_CHARGES

@<TRIPOS>ATOM
      1 C1          1.4647    0.8376   -1.2425 C.3       1 <0>         0.0268
      2 O1          1.2270   -0.5573   -1.0428 O.3       1 <0>        -0.3140
      3 C2          1.8198   -1.1362    0.0344 C.ar      1 <0>         0.1667
      4 C3          2.6096   -0.3752    0.8850 C.ar      1 <0>        -0.2438
      5 C4          3.2125   -0.9631    1.9802 C.ar      1 <0>        -0.0393
      6 C5          3.0314   -2.3099    2.2314 C.ar      1 <0>        -0.2455
      7 C6          2.2428   -3.0750    1.3841 C.ar      1 <0>         0.1687
      8 C7          1.6316   -2.4859    0.2877 C.ar      1 <0>        -0.1876
      9 O2          2.0652   -4.3993    1.6316 O.3       1 <0>        -0.3083
     10 C8          2.7199   -4.9378    2.7820 C.3       1 <0>         0.0648
     11 C9          2.4052   -6.4308    2.8958 C.3       1 <0>        -0.1209
     12 C10         3.1062   -7.0074    4.1275 C.3       1 <0>         0.0622
     13 O3          2.8122   -8.4017    4.2338 O.3       1 <0>        -0.3053
     14 C11         3.3610   -9.0690    5.2800 C.ar      1 <0>         0.1648
     15 C12         4.1637   -8.3895    6.1907 C.ar      1 <0>        -0.2156
     16 C13         4.7193   -9.0559    7.2458 C.ar      1 <0>        -0.0168
     17 C14         4.4787  -10.4276    7.4102 C.ar      1 <0>        -0.1418
     18 C15         3.6683  -11.1069    6.4891 C.ar      1 <0>        -0.0305
     19 C16         3.1140  -10.4285    5.4409 C.ar      1 <0>        -0.1586
     20 C17         5.0719  -11.1481    8.5391 C.2       1 <0>         0.1086
     21 C18         5.2627  -10.5058    9.7418 C.2       1 <0>        -0.2417
     22 C19         4.7180   -9.1426    9.9992 C.2       1 <0>         0.4563
     23 N1          3.5966   -8.7097    9.4876 N.2       1 <0>        -0.6166
     24 N2          5.5329   -8.3653   10.8501 N.pl3     1 <0>        -0.4319
     25 C20         6.3865   -9.0353   11.7000 C.2       1 <0>         0.3792
     26 N3          6.6101  -10.3244   11.7543 N.2       1 <0>        -0.5236
     27 C21         6.0166  -11.1363   10.8540 C.2       1 <0>         0.5515
     28 O4          6.0996  -12.3503   10.9478 O.2       1 <0>        -0.4337
     29 S1          7.0861   -7.7083   12.6456 S.3       1 <0>         0.2094
     30 C22         6.2823   -6.3610   11.7886 C.2       1 <0>        -0.4512
     31 N4          5.5450   -6.9885   10.9177 N.2       1 <0>        -0.1207
     32 S2          6.4458   -4.6269   12.0544 S.o2      1 <0>         2.5199
     33 O5          7.7805   -4.4543   12.5107 O.2       1 <0>        -0.8920
     34 O6          6.0130   -4.0313   10.8390 O.2       1 <0>        -0.8918
     35 C23         5.2758   -4.2472   13.3877 C.3       1 <0>        -0.6341
     36 H1          2.5336    1.0096   -1.3688 H         1 <0>         0.0578
     37 H2          0.9350    1.1724   -2.1343 H         1 <0>         0.1029
     38 H3          1.1069    1.3947   -0.3767 H         1 <0>         0.0578
     39 H4          2.7532    0.6774    0.6903 H         1 <0>         0.1307
     40 H5          3.8267   -0.3692    2.6409 H         1 <0>         0.1295
     41 H6          3.5044   -2.7674    3.0878 H         1 <0>         0.1292
     42 H7          1.0138   -3.0788   -0.3705 H         1 <0>         0.1396
     43 H8          3.7968   -4.7999    2.6850 H         1 <0>         0.0686
     44 H9          2.3667   -4.4229    3.6754 H         1 <0>         0.0687
     45 H10         1.3283   -6.5687    2.9928 H         1 <0>         0.0893
     46 H11         2.7584   -6.9457    2.0024 H         1 <0>         0.0893
     47 H12         4.1831   -6.8694    4.0304 H         1 <0>         0.0695
     48 H13         2.7530   -6.4924    5.0209 H         1 <0>         0.0696
     49 H14         4.3482   -7.3331    6.0630 H         1 <0>         0.1312
     50 H15         5.3429   -8.5275    7.9517 H         1 <0>         0.1132
     51 H16         3.4794  -12.1633    6.6105 H         1 <0>         0.1403
     52 H17         2.4864  -10.9497    4.7332 H         1 <0>         0.1395
     53 H18         5.3596  -12.1831    8.4280 H         1 <0>         0.1622
     54 H19         3.2865   -7.8127    9.6880 H         1 <0>         0.3612
     55 H20         5.5410   -4.8183   14.2774 H         1 <0>         0.1429
     56 H21         5.3164   -3.1818   13.6143 H         1 <0>         0.1524
     57 H22         4.2669   -4.5134   13.0724 H         1 <0>         0.1412
@<TRIPOS>BOND
     1    1    2 1
     2    1   36 1
     3    1   37 1
     4    1   38 1
     5    2    3 1
     6    3    8 ar
     7    3    4 ar
     8    4    5 ar
     9    4   39 1
    10    5    6 ar
    11    5   40 1
    12    6    7 ar
    13    6   41 1
    14    7    8 ar
    15    7    9 1
    16    8   42 1
    17    9   10 1
    18   10   11 1
    19   10   43 1
    20   10   44 1
    21   11   12 1
    22   11   45 1
    23   11   46 1
    24   12   13 1
    25   12   47 1
    26   12   48 1
    27   13   14 1
    28   14   19 ar
    29   14   15 ar
    30   15   16 ar
    31   15   49 1
    32   16   17 ar
    33   16   50 1
    34   17   18 ar
    35   17   20 1
    36   18   19 ar
    37   18   51 1
    38   19   52 1
    39   20   21 2
    40   20   53 1
    41   21   27 1
    42   21   22 1
    43   22   23 2
    44   22   24 1
    45   23   54 1
    46   24   31 1
    47   24   25 1
    48   25   26 2
    49   25   29 1
    50   26   27 1
    51   27   28 2
    52   29   30 1
    53   30   31 2
    54   30   32 1
    55   32   33 2
    56   32   34 2
    57   32   35 1
    58   35   55 1
    59   35   56 1
    60   35   57 1
@<TRIPOS>MOLECULE
ZINC11000023
   58    61     0     0     0
SMALL
USER_CHARGES
2-butyl-N-[4-(4,5-dihydro-3H-pyrrol-2-ylsulfamoyl)phenyl]-1,3-dioxo-isoindoline-5-carboxamide
@<TRIPOS>ATOM
      1 C1         -7.6341    2.8374   -2.1042 C.3       1 <0>        -0.1533
      2 C2         -7.0133    2.6495   -0.7185 C.3       1 <0>        -0.1213
      3 C3         -5.4880    2.6593   -0.8374 C.3       1 <0>        -0.1373
      4 C4         -4.8672    2.4713    0.5484 C.3       1 <0>         0.1080
      5 N1         -3.4067    2.4807    0.4345 N.am      1 <0>        -0.5727
      6 C5         -2.6526    1.3862    0.2278 C.2       1 <0>         0.5698
      7 O1         -3.0678    0.2514    0.1082 O.2       1 <0>        -0.4449
      8 C6         -1.2320    1.7978    0.1654 C.ar      1 <0>        -0.0994
      9 C7         -0.0377    1.1179   -0.0147 C.ar      1 <0>        -0.0496
     10 C8          1.1591    1.8136   -0.0159 C.ar      1 <0>        -0.0578
     11 C9          1.1698    3.1961    0.1686 C.ar      1 <0>        -0.1252
     12 C10        -0.0299    3.8887    0.3566 C.ar      1 <0>         0.0172
     13 C11        -1.2275    3.1946    0.3580 C.ar      1 <0>        -0.1404
     14 C12        -2.6438    3.5850    0.5226 C.2       1 <0>         0.5739
     15 O2         -3.0506    4.7143    0.7071 O.2       1 <0>        -0.4465
     16 C13         2.4540    3.9314    0.1658 C.2       1 <0>         0.5683
     17 O3          2.4649    5.1361    0.3264 O.2       1 <0>        -0.4903
     18 N2          3.6115    3.2651   -0.0149 N.am      1 <0>        -0.6730
     19 C14         4.8137    3.9702   -0.1281 C.ar      1 <0>         0.2344
     20 C15         4.8331    5.2203   -0.7333 C.ar      1 <0>        -0.1294
     21 C16         6.0213    5.9161   -0.8392 C.ar      1 <0>        -0.0212
     22 C17         7.1928    5.3650   -0.3531 C.ar      1 <0>        -0.7163
     23 C18         7.1779    4.1184    0.2453 C.ar      1 <0>         0.0211
     24 C19         5.9921    3.4196    0.3591 C.ar      1 <0>        -0.1529
     25 S1          8.7077    6.2535   -0.4958 S.o2      1 <0>         2.6416
     26 O4          8.3637    7.6281   -0.6032 O.2       1 <0>        -0.9162
     27 O5          9.5654    5.7603    0.5241 O.2       1 <0>        -0.8827
     28 N3          9.3936    5.8230   -1.9403 N.pl3     1 <0>        -1.0073
     29 C20         8.7715    6.1463   -3.1173 C.cat     1 <0>         0.5436
     30 C21         7.2343    6.9872   -4.5919 C.3       1 <0>         0.0624
     31 C22         8.0845    5.9977   -5.4221 C.3       1 <0>        -0.1346
     32 C23         9.3086    5.8096   -4.4907 C.3       1 <0>        -0.1268
     33 H1         -8.7208    2.8305   -2.0195 H         1 <0>         0.0597
     34 H2         -7.3083    3.7900   -2.5221 H         1 <0>         0.0547
     35 H3         -7.3154    2.0258   -2.7582 H         1 <0>         0.0549
     36 H4         -7.3391    1.6969   -0.3006 H         1 <0>         0.0680
     37 H5         -7.3320    3.4612   -0.0645 H         1 <0>         0.0679
     38 H6         -5.1622    3.6118   -1.2553 H         1 <0>         0.0700
     39 H7         -5.1693    1.8476   -1.4914 H         1 <0>         0.0701
     40 H8         -5.1929    1.5188    0.9663 H         1 <0>         0.1014
     41 H9         -5.1859    3.2830    1.2024 H         1 <0>         0.1014
     42 H10        -0.0412    0.0475   -0.1582 H         1 <0>         0.1571
     43 H11         2.0889    1.2834   -0.1600 H         1 <0>         0.1456
     44 H12        -0.0224    4.9592    0.4994 H         1 <0>         0.1593
     45 H13         3.6107    2.2965   -0.0664 H         1 <0>         0.4222
     46 H14         3.9193    5.6493   -1.1171 H         1 <0>         0.1574
     47 H15         6.0364    6.8899   -1.3059 H         1 <0>         0.1340
     48 H16         8.0944    3.6910    0.6242 H         1 <0>         0.1579
     49 H17         5.9811    2.4462    0.8268 H         1 <0>         0.1534
     50 H18        10.2358    5.3419   -1.9530 H         1 <0>         0.4677
     51 H19         6.1739    6.7608   -4.7034 H         1 <0>         0.1323
     52 H20         7.4376    8.0125   -4.9011 H         1 <0>         0.1325
     53 H21         7.5546    5.0576   -5.5757 H         1 <0>         0.1117
     54 H22         8.3825    6.4383   -6.3735 H         1 <0>         0.1319
     55 H23        10.1110    6.4940   -4.7661 H         1 <0>         0.1558
     56 H24         9.6571    4.7773   -4.5227 H         1 <0>         0.1471
     57 N4          7.6460    6.7874   -3.1861 N.pl3     1 <0>        -0.6045
     58 H25         7.1117    7.1130   -2.3720 H         1 <0>         0.4491
@<TRIPOS>BOND
     1    1    2 1
     2    1   33 1
     3    1   34 1
     4    1   35 1
     5    2    3 1
     6    2   36 1
     7    2   37 1
     8    3    4 1
     9    3   38 1
    10    3   39 1
    11    4    5 1
    12    4   40 1
    13    4   41 1
    14    5   14 am
    15    5    6 am
    16    6    7 2
    17    6    8 1
    18    8   13 ar
    19    8    9 ar
    20    9   10 ar
    21    9   42 1
    22   10   11 ar
    23   10   43 1
    24   11   12 ar
    25   11   16 1
    26   12   13 ar
    27   12   44 1
    28   13   14 1
    29   14   15 2
    30   16   17 2
    31   16   18 am
    32   18   19 1
    33   18   45 1
    34   19   24 ar
    35   19   20 ar
    36   20   21 ar
    37   20   46 1
    38   21   22 ar
    39   21   47 1
    40   22   23 ar
    41   22   25 1
    42   23   24 ar
    43   23   48 1
    44   24   49 1
    45   25   26 2
    46   25   27 2
    47   25   28 1
    48   28   29 1
    49   28   50 1
    50   29   32 1
    51   29   57 2
    52   30   31 1
    53   30   51 1
    54   30   52 1
    55   30   57 1
    56   31   32 1
    57   31   53 1
    58   31   54 1
    59   32   55 1
    60   32   56 1
    61   57   58 1
@<TRIPOS>MOLECULE
ZINC12309624
   53    55     0     0     0
SMALL
USER_CHARGES
2-[(1,3-dimethyl-2,4-dioxo-6-propyl-8H-pyrido[3,2-e]pyrimidin-5-ylidene)amino]oxy-N-(2-fluorophenyl)acetamide
@<TRIPOS>ATOM
      1 C1         -1.9768   -2.5823   -2.2362 C.3       1 <0>        -0.1615
      2 C2         -0.7394   -1.8451   -1.7204 C.3       1 <0>        -0.1290
      3 C3         -1.1750   -0.6622   -0.8532 C.3       1 <0>        -0.0778
      4 C4          0.0438    0.0640   -0.3451 C.ar      1 <0>        -0.1777
      5 C5          1.1940   -0.5940   -0.1283 C.ar      1 <0>         0.1926
      6 N1          2.3131    0.0416    0.3391 N.ar      1 <0>        -0.5935
      7 H1          3.1588   -0.5464    0.7250 H         1 <0>         0.4757
      8 C6          2.4243    1.3966    0.3460 C.ar      1 <0>         0.5093
      9 C7          1.2945    2.1857    0.1474 C.ar      1 <0>        -0.3163
     10 C8         -0.0004    1.5148   -0.0741 C.ar      1 <0>         0.4191
     11 N2         -1.1353    2.1758   -0.0377 N.pl3     1 <0>        -0.4868
     12 O1         -1.2207    3.3973    0.6736 O.3       1 <0>        -0.0576
     13 C9         -2.5123    4.0069    0.6288 C.3       1 <0>        -0.0034
     14 C10        -2.4884    5.2929    1.4140 C.2       1 <0>         0.5310
     15 O2         -1.4658    5.6521    1.9585 O.2       1 <0>        -0.4864
     16 N3         -3.6032    6.0439    1.5113 N.am      1 <0>        -0.6750
     17 C11        -3.5560    7.2874    2.1538 C.ar      1 <0>         0.1138
     18 C12        -2.4095    8.0663    2.0784 C.ar      1 <0>        -0.0955
     19 C13        -2.3678    9.2950    2.7084 C.ar      1 <0>        -0.1077
     20 C14        -3.4622    9.7455    3.4237 C.ar      1 <0>        -0.0979
     21 C15        -4.6045    8.9709    3.5065 C.ar      1 <0>        -0.1327
     22 C16        -4.6554    7.7422    2.8735 C.ar      1 <0>         0.0761
     23 F1         -5.7716    6.9853    2.9540 F         1 <0>        -0.1362
     24 C17         1.4174    3.5943    0.1631 C.2       1 <0>         0.5671
     25 O3          0.4424    4.3040   -0.0050 O.2       1 <0>        -0.4452
     26 N4          2.6371    4.1375    0.3686 N.am      1 <0>        -0.5507
     27 C18         3.7154    3.3566    0.5538 C.2       1 <0>         0.7051
     28 O4          4.7981    3.8794    0.7336 O.2       1 <0>        -0.4939
     29 N5          3.6324    2.0135    0.5458 N.am      1 <0>        -0.5288
     30 C19         4.8379    1.2070    0.7519 C.3       1 <0>         0.0401
     31 C20         2.7865    5.5947    0.3894 C.3       1 <0>         0.0728
     32 H2         -1.6636   -3.4327   -2.8597 H         1 <0>         0.0668
     33 H3         -2.5901   -1.8940   -2.8363 H         1 <0>         0.0603
     34 H4         -2.5663   -2.9502   -1.3835 H         1 <0>         0.0621
     35 H5         -0.1261   -2.5334   -1.1203 H         1 <0>         0.0724
     36 H6         -0.1498   -1.4772   -2.5730 H         1 <0>         0.0749
     37 H7         -1.7883    0.0261   -1.4533 H         1 <0>         0.0830
     38 H8         -1.7646   -1.0301   -0.0005 H         1 <0>         0.1042
     39 H9          1.2376   -1.6545   -0.3278 H         1 <0>         0.2114
     40 H10        -2.7809    4.2204   -0.4163 H         1 <0>         0.1140
     41 H11        -3.2555    3.3240    1.0662 H         1 <0>         0.1097
     42 H12        -4.5502    5.6802    1.0861 H         1 <0>         0.4419
     43 H13        -1.5523    7.7140    1.5239 H         1 <0>         0.1428
     44 H14        -1.4774    9.9031    2.6456 H         1 <0>         0.1366
     45 H15        -3.4245   10.7044    3.9190 H         1 <0>         0.1391
     46 H16        -5.4574    9.3253    4.0662 H         1 <0>         0.1438
     47 H17         5.7034    1.8709    0.8940 H         1 <0>         0.1343
     48 H18         5.0064    0.5681   -0.1275 H         1 <0>         0.0997
     49 H19         4.7091    0.5765    1.6440 H         1 <0>         0.0969
     50 H20         3.8409    5.8527    0.5677 H         1 <0>         0.1091
     51 H21         2.1650    6.0155    1.1935 H         1 <0>         0.0922
     52 H22         2.4658    6.0100   -0.5774 H         1 <0>         0.0885
     53 H23        -2.0191    1.7804   -0.5597 H         1 <0>         0.4679
@<TRIPOS>BOND
     1    1    2 1
     2    1   32 1
     3    1   33 1
     4    1   34 1
     5    2    3 1
     6    2   35 1
     7    2   36 1
     8    3    4 1
     9    3   37 1
    10    3   38 1
    11    4   10 ar
    12    4    5 ar
    13    5    6 ar
    14    5   39 1
    15    6    7 1
    16    6    8 ar
    17    8   29 1
    18    8    9 ar
    19    9   10 ar
    20    9   24 1
    21   10   11 1
    22   11   12 1
    23   11   53 1
    24   12   13 1
    25   13   14 1
    26   13   40 1
    27   13   41 1
    28   14   15 2
    29   14   16 am
    30   16   17 1
    31   16   42 1
    32   17   22 ar
    33   17   18 ar
    34   18   19 ar
    35   18   43 1
    36   19   20 ar
    37   19   44 1
    38   20   21 ar
    39   20   45 1
    40   21   22 ar
    41   21   46 1
    42   22   23 1
    43   24   25 2
    44   24   26 am
    45   26   27 am
    46   26   31 1
    47   27   28 2
    48   27   29 am
    49   29   30 1
    50   30   47 1
    51   30   48 1
    52   30   49 1
    53   31   50 1
    54   31   51 1
    55   31   52 1
@<TRIPOS>MOLECULE
ZINC36569768
   51    53     0     0     0
SMALL
USER_CHARGES

@<TRIPOS>ATOM
      1 C1         -8.1919   -6.3503    1.3666 C.3       1 <0>         0.0338
      2 O1         -7.8601   -5.1310    2.0341 O.3       1 <0>        -0.3482
      3 C2         -6.8617   -4.4022    1.5110 C.2       1 <0>         0.4574
      4 O2         -6.2884   -4.7866    0.5193 O.2       1 <0>        -0.4876
      5 C3         -6.4557   -3.1044    2.1606 C.3       1 <0>        -0.1237
      6 C4         -5.3037   -2.4779    1.3723 C.3       1 <0>         0.1884
      7 H1         -4.4879   -3.1960    1.2887 H         1 <0>         0.1447
      8 C5         -4.8164   -1.2452    2.0891 C.2       1 <0>         0.4519
      9 O3         -4.8553   -0.1707    1.5379 O.2       1 <0>        -0.4917
     10 O4         -4.3391   -1.3408    3.3401 O.3       1 <0>        -0.3472
     11 C6         -3.8944   -0.1319    3.9589 C.3       1 <0>         0.0332
     12 N1         -5.7709   -2.1115    0.0330 N.am      1 <0>        -0.7154
     13 C7         -4.8933   -2.0232   -0.9861 C.2       1 <0>         0.7324
     14 O5         -3.7032   -2.1590   -0.7770 O.2       1 <0>        -0.5527
     15 N2         -5.3348   -1.7842   -2.2368 N.am      1 <0>        -0.6193
     16 C8         -4.4086   -1.8033   -3.3789 C.3       1 <0>         0.1188
     17 C9         -4.3415   -0.3995   -3.9940 C.3       1 <0>        -0.0808
     18 C10        -5.7408    0.1437   -4.1178 C.2       1 <0>         0.0844
     19 C11        -6.8153   -0.3338   -3.4536 C.2       1 <0>         0.0071
     20 N3         -7.8783    0.3919   -3.8072 N.pl3     1 <0>        -0.4572
     21 C12        -7.5072    1.3023   -4.6694 C.cat     1 <0>         0.3077
     22 N4         -6.1781    1.1776   -4.8893 N.pl3     1 <0>        -0.5019
     23 H2         -5.6385    1.7217   -5.4840 H         1 <0>         0.4680
     24 C13        -6.7588   -1.5035   -2.4938 C.3       1 <0>         0.2633
     25 H3         -7.2598   -1.2435   -1.5614 H         1 <0>         0.1203
     26 C14        -7.4162   -2.7109   -3.1112 C.ar      1 <0>        -0.1149
     27 C15        -7.0058   -3.1625   -4.3517 C.ar      1 <0>        -0.0957
     28 C16        -7.6082   -4.2701   -4.9181 C.ar      1 <0>        -0.0849
     29 C17        -8.6217   -4.9267   -4.2436 C.ar      1 <0>        -0.0725
     30 C18        -9.0320   -4.4744   -3.0024 C.ar      1 <0>        -0.0816
     31 C19        -8.4255   -3.3699   -2.4344 C.ar      1 <0>        -0.0876
     32 Br1        -9.4466   -6.4417   -5.0183 Br        1 <0>        -0.0253
     33 H4         -9.0126   -6.8398    1.8910 H         1 <0>         0.1074
     34 H5         -8.4935   -6.1331    0.3420 H         1 <0>         0.0605
     35 H6         -7.3227   -7.0079    1.3579 H         1 <0>         0.0654
     36 H7         -7.3047   -2.4208    2.1683 H         1 <0>         0.1201
     37 H8         -6.1338   -3.2956    3.1843 H         1 <0>         0.1454
     38 H9         -3.0867    0.3021    3.3696 H         1 <0>         0.0638
     39 H10        -4.7232    0.5738    4.0148 H         1 <0>         0.0633
     40 H11        -3.5342   -0.3497    4.9644 H         1 <0>         0.1099
     41 H12        -6.7118   -1.9324   -0.1203 H         1 <0>         0.3958
     42 H13        -3.4165   -2.0999   -3.0386 H         1 <0>         0.1290
     43 H14        -4.7658   -2.5119   -4.1260 H         1 <0>         0.0920
     44 H15        -3.7517    0.2535   -3.3507 H         1 <0>         0.1183
     45 H16        -3.8824   -0.4547   -4.9811 H         1 <0>         0.1201
     46 H17        -8.1551    2.0332   -5.1304 H         1 <0>         0.2716
     47 H18        -6.2147   -2.6496   -4.8784 H         1 <0>         0.1321
     48 H19        -7.2878   -4.6226   -5.8874 H         1 <0>         0.1412
     49 H20        -9.8233   -4.9868   -2.4753 H         1 <0>         0.1420
     50 H21        -8.7429   -3.0192   -1.4635 H         1 <0>         0.1325
     51 H22        -8.7814    0.2646   -3.4771 H         1 <0>         0.4660
@<TRIPOS>BOND
     1    1    2 1
     2    1   33 1
     3    1   34 1
     4    1   35 1
     5    2    3 1
     6    3    4 2
     7    3    5 1
     8    5    6 1
     9    5   36 1
    10    5   37 1
    11    6    7 1
    12    6    8 1
    13    6   12 1
    14    8    9 2
    15    8   10 1
    16   10   11 1
    17   11   38 1
    18   11   39 1
    19   11   40 1
    20   12   13 am
    21   12   41 1
    22   13   14 2
    23   13   15 am
    24   15   24 1
    25   15   16 1
    26   16   17 1
    27   16   42 1
    28   16   43 1
    29   17   18 1
    30   17   44 1
    31   17   45 1
    32   18   22 1
    33   18   19 2
    34   19   20 1
    35   19   24 1
    36   20   21 2
    37   20   51 1
    38   21   22 1
    39   21   46 1
    40   22   23 1
    41   24   25 1
    42   24   26 1
    43   26   31 ar
    44   26   27 ar
    45   27   28 ar
    46   27   47 1
    47   28   29 ar
    48   28   48 1
    49   29   30 ar
    50   29   32 1
    51   30   31 ar
    52   30   49 1
    53   31   50 1
@<TRIPOS>MOLECULE
ZINC36007413
   72    74     0     0     0
SMALL
USER_CHARGES

@<TRIPOS>ATOM
      1 C1          0.6726    1.1360   -1.1654 C.3       1 <0>        -0.1567
      2 C2          0.8729   -0.3688   -0.9750 C.3       1 <0>        -0.1356
      3 C3          0.8201   -0.7057    0.5165 C.3       1 <0>         0.1844
      4 H1         -0.1212   -0.3233    0.9112 H         1 <0>         0.0904
      5 C4          0.8058   -2.2147    0.6543 C.2       1 <0>        -0.2385
      6 C5          1.7932   -2.7895    1.3742 C.2       1 <0>         0.2358
      7 N1          2.7707   -2.0352    1.9577 N.am      1 <0>        -0.6501
      8 C6          2.8317   -0.7006    1.8683 C.2       1 <0>         0.7033
      9 O1          3.7417   -0.1152    2.4223 O.2       1 <0>        -0.5568
     10 N2          1.9180    0.0141    1.1836 N.am      1 <0>        -0.7102
     11 C7          1.8164   -4.2875    1.5368 C.3       1 <0>         0.0750
     12 N3          2.4952   -4.8947    0.3842 N.3       1 <0>        -0.5178
     13 C8          3.9417   -4.6385    0.4298 C.3       1 <0>         0.0144
     14 C9          4.6018   -5.2346   -0.8155 C.3       1 <0>         0.0011
     15 N4          4.3443   -6.6799   -0.8620 N.4       1 <0>        -0.3731
     16 C10         2.8967   -6.9191   -0.9321 C.3       1 <0>        -0.0111
     17 C11         2.2225   -6.3371    0.3122 C.3       1 <0>         0.0394
     18 C12         4.9933   -7.2547   -2.0480 C.3       1 <0>        -0.0310
     19 C13         4.8338   -8.7531   -2.0312 C.2       1 <0>         0.5014
     20 O2          4.2382   -9.2895   -1.1210 O.2       1 <0>        -0.5303
     21 N5          5.3531   -9.4972   -3.0278 N.am      1 <0>        -0.5839
     22 C14         6.0825   -8.8625   -4.1341 C.3       1 <0>         0.0984
     23 C15         7.4571   -9.5262   -4.2634 C.3       1 <0>        -0.1060
     24 H2          8.0471   -9.3179   -3.3709 H         1 <0>         0.0772
     25 C16         7.2768  -11.0383   -4.4151 C.3       1 <0>        -0.1177
     26 C17         6.5851  -11.5987   -3.1703 C.3       1 <0>        -0.1053
     27 H3          7.1833  -11.3709   -2.2880 H         1 <0>         0.0756
     28 C18         5.2058  -10.9591   -3.0254 C.3       1 <0>         0.1111
     29 C19         6.4356  -13.1152   -3.3082 C.3       1 <0>        -0.1500
     30 C20         8.1783   -8.9713   -5.4934 C.3       1 <0>        -0.1510
     31 C21        -0.2077   -2.9946    0.0497 C.2       1 <0>         0.5388
     32 O3         -0.1342   -4.2091    0.0698 O.2       1 <0>        -0.5102
     33 O4         -1.2560   -2.3919   -0.5492 O.3       1 <0>        -0.3459
     34 C22        -2.2423   -3.2412   -1.1392 C.3       1 <0>         0.0659
     35 C23        -3.3447   -2.3844   -1.7648 C.3       1 <0>        -0.1564
     36 H4          1.4617    1.6766   -0.6426 H         1 <0>         0.0527
     37 H5          0.7102    1.3761   -2.2279 H         1 <0>         0.0628
     38 H6         -0.2967    1.4276   -0.7611 H         1 <0>         0.0621
     39 H7          0.0838   -0.9093   -1.4978 H         1 <0>         0.0877
     40 H8          1.8423   -0.6603   -1.3793 H         1 <0>         0.0626
     41 H9          3.4594   -2.4919    2.4657 H         1 <0>         0.4248
     42 H10         1.9821    0.9806    1.1312 H         1 <0>         0.4351
     43 H11         2.3514   -4.5455    2.4508 H         1 <0>         0.0604
     44 H12         0.7946   -4.6624    1.5957 H         1 <0>         0.1488
     45 H13         4.1200   -3.5635    0.4567 H         1 <0>         0.1188
     46 H14         4.3648   -5.1002    1.3220 H         1 <0>         0.0660
     47 H15         4.1881   -4.7630   -1.7069 H         1 <0>         0.1403
     48 H16         5.6767   -5.0581   -0.7767 H         1 <0>         0.1378
     49 H17         2.4919   -6.4389   -1.8229 H         1 <0>         0.1345
     50 H18         2.7076   -7.9915   -0.9798 H         1 <0>         0.1530
     51 H19         2.6173   -6.8267    1.2024 H         1 <0>         0.0627
     52 H20         1.1466   -6.5013    0.2533 H         1 <0>         0.1343
     53 H21         4.5299   -6.8500   -2.9477 H         1 <0>         0.1595
     54 H22         6.0535   -7.0020   -2.0402 H         1 <0>         0.1589
     55 H23         5.5250   -8.9928   -5.0616 H         1 <0>         0.0893
     56 H24         6.2078   -7.7997   -3.9269 H         1 <0>         0.0831
     57 H25         6.6660  -11.2449   -5.2939 H         1 <0>         0.0715
     58 H26         8.2523  -11.5104   -4.5320 H         1 <0>         0.0765
     59 H27         4.7530  -11.2792   -2.0870 H         1 <0>         0.1006
     60 H28         4.5753  -11.2642   -3.8605 H         1 <0>         0.0824
     61 H29         7.4209  -13.5695   -3.4116 H         1 <0>         0.0662
     62 H30         5.9429  -13.5138   -2.4214 H         1 <0>         0.0613
     63 H31         5.8363  -13.3425   -4.1899 H         1 <0>         0.0613
     64 H32         8.3040   -7.8939   -5.3856 H         1 <0>         0.0592
     65 H33         9.1563   -9.4438   -5.5850 H         1 <0>         0.0676
     66 H34         7.5886   -9.1809   -6.3857 H         1 <0>         0.0625
     67 H35        -1.7781   -3.8559   -1.9104 H         1 <0>         0.0672
     68 H36        -2.6734   -3.8847   -0.3723 H         1 <0>         0.0688
     69 H37        -3.8089   -1.7697   -0.9936 H         1 <0>         0.0688
     70 H38        -2.9136   -1.7409   -2.5317 H         1 <0>         0.0674
     71 H39        -4.0970   -3.0322   -2.2149 H         1 <0>         0.0819
     72 H40         4.7170   -7.1147   -0.0313 H         1 <0>         0.4271
@<TRIPOS>BOND
     1    1    2 1
     2    1   36 1
     3    1   37 1
     4    1   38 1
     5    2    3 1
     6    2   39 1
     7    2   40 1
     8    3    4 1
     9    3   10 1
    10    3    5 1
    11    5    6 2
    12    5   31 1
    13    6    7 1
    14    6   11 1
    15    7    8 am
    16    7   41 1
    17    8    9 2
    18    8   10 am
    19   10   42 1
    20   11   12 1
    21   11   43 1
    22   11   44 1
    23   12   17 1
    24   12   13 1
    25   13   14 1
    26   13   45 1
    27   13   46 1
    28   14   15 1
    29   14   47 1
    30   14   48 1
    31   15   16 1
    32   15   18 1
    33   15   72 1
    34   16   17 1
    35   16   49 1
    36   16   50 1
    37   17   51 1
    38   17   52 1
    39   18   19 1
    40   18   53 1
    41   18   54 1
    42   19   20 2
    43   19   21 am
    44   21   28 1
    45   21   22 1
    46   22   23 1
    47   22   55 1
    48   22   56 1
    49   23   24 1
    50   23   25 1
    51   23   30 1
    52   25   26 1
    53   25   57 1
    54   25   58 1
    55   26   27 1
    56   26   28 1
    57   26   29 1
    58   28   59 1
    59   28   60 1
    60   29   61 1
    61   29   62 1
    62   29   63 1
    63   30   64 1
    64   30   65 1
    65   30   66 1
    66   31   32 2
    67   31   33 1
    68   33   34 1
    69   34   35 1
    70   34   67 1
    71   34   68 1
    72   35   69 1
    73   35   70 1
    74   35   71 1
@<TRIPOS>MOLECULE
ZINC63426798
   57    60     0     0     0
SMALL
USER_CHARGES

@<TRIPOS>ATOM
      1 C1          0.5380    1.6989   -0.4165 C.3       1 <0>         0.0251
      2 O1          0.3261    0.2871   -0.3543 O.3       1 <0>        -0.3139
      3 C2          0.7070   -0.3445    0.7879 C.ar      1 <0>         0.1558
      4 C3          1.2669    0.3796    1.8283 C.ar      1 <0>        -0.2010
      5 C4          1.6531   -0.2640    2.9891 C.ar      1 <0>        -0.0576
      6 C5          1.4828   -1.6304    3.1159 C.ar      1 <0>        -0.1479
      7 C6          0.9256   -2.3596    2.0827 C.ar      1 <0>        -0.0547
      8 C7          0.5300   -1.7198    0.9173 C.ar      1 <0>         0.0866
      9 N1         -0.0417   -2.4572   -0.1306 N.am      1 <0>        -0.5019
     10 C8          0.7601   -2.9887   -1.0763 C.2       1 <0>         0.5865
     11 O2          1.9664   -2.8365   -1.0303 O.2       1 <0>        -0.4905
     12 C9          0.1356   -3.7592   -2.1662 C.2       1 <0>        -0.3976
     13 C10         0.8934   -4.3335   -3.1699 C.2       1 <0>         0.3355
     14 N2          0.3128   -5.1567   -4.0658 N.pl3     1 <0>        -0.6696
     15 C11         1.0851   -5.6637   -5.2027 C.3       1 <0>         0.1475
     16 H1          2.1175   -5.8301   -4.8954 H         1 <0>         0.1446
     17 C12         0.4775   -6.9826   -5.6845 C.3       1 <0>        -0.0944
     18 C13         0.6229   -8.0259   -4.6068 C.2       1 <0>         0.0478
     19 C14        -0.2966   -8.3661   -3.6749 C.ar      1 <0>        -0.1550
     20 C15        -1.6547   -7.8843   -3.3958 C.ar      1 <0>        -0.0202
     21 C16        -2.3465   -8.4303   -2.3700 C.ar      1 <0>        -0.1413
     22 C17        -1.8002   -9.4420   -1.5683 C.ar      1 <0>         0.0578
     23 C18        -0.5593   -9.9363   -1.7628 C.ar      1 <0>        -0.2101
     24 C19         0.2573   -9.4355   -2.8141 C.ar      1 <0>         0.3308
     25 N3          1.4718   -9.7445   -3.1987 N.pl3     1 <0>        -0.5808
     26 C20         1.8239   -8.9091   -4.3523 C.3       1 <0>         0.0635
     27 C21         1.0506   -4.6560   -6.3228 C.2       1 <0>         0.4349
     28 O3          0.4432   -3.6206   -6.1854 O.2       1 <0>        -0.4636
     29 O4          1.6947   -4.9088   -7.4730 O.3       1 <0>        -0.3476
     30 C22         1.6196   -3.9094   -8.4917 C.3       1 <0>         0.0308
     31 C23        -1.3321   -3.8913   -2.1392 C.2       1 <0>         0.5907
     32 O5         -1.9194   -4.5129   -3.0046 O.2       1 <0>        -0.5288
     33 N4         -2.0065   -3.3048   -1.1289 N.am      1 <0>        -0.6585
     34 C24        -1.3715   -2.6218   -0.1661 C.2       1 <0>         0.7111
     35 O6         -2.0371   -2.1213    0.7191 O.2       1 <0>        -0.5096
     36 H2          1.6010    1.9121   -0.3044 H         1 <0>         0.0608
     37 H3          0.1911    2.0764   -1.3784 H         1 <0>         0.1036
     38 H4         -0.0167    2.1853    0.3860 H         1 <0>         0.0614
     39 H5          1.4019    1.4468    1.7322 H         1 <0>         0.1394
     40 H6          2.0893    0.3018    3.7990 H         1 <0>         0.1358
     41 H7          1.7864   -2.1291    4.0245 H         1 <0>         0.1360
     42 H8          0.7945   -3.4268    2.1841 H         1 <0>         0.1308
     43 H9          1.9506   -4.1227   -3.2362 H         1 <0>         0.1798
     44 H10        -0.6164   -5.4132   -3.9576 H         1 <0>         0.4272
     45 H11        -0.5792   -6.8357   -5.9078 H         1 <0>         0.1255
     46 H12         0.9962   -7.3146   -6.5838 H         1 <0>         0.1502
     47 H13        -2.0948   -7.1051   -4.0005 H         1 <0>         0.1614
     48 H14        -3.3459   -8.0773   -2.1628 H         1 <0>         0.1600
     49 H15        -2.3964   -9.8421   -0.7616 H         1 <0>         0.1628
     50 H16        -0.1844  -10.7162   -1.1165 H         1 <0>         0.1626
     51 H17         2.0230   -9.5328   -5.2238 H         1 <0>         0.1792
     52 H18         2.6964   -8.2988   -4.1192 H         1 <0>         0.1750
     53 H19         2.0427   -2.9771   -8.1179 H         1 <0>         0.0686
     54 H20         2.1814   -4.2387   -9.3658 H         1 <0>         0.1136
     55 H21         0.5774   -3.7503   -8.7685 H         1 <0>         0.0681
     56 H22        -2.9729   -3.3822   -1.0964 H         1 <0>         0.4364
     57 H23         2.0411  -10.4159   -2.7913 H         1 <0>         0.4576
@<TRIPOS>BOND
     1    1    2 1
     2    1   36 1
     3    1   37 1
     4    1   38 1
     5    2    3 1
     6    3    8 ar
     7    3    4 ar
     8    4    5 ar
     9    4   39 1
    10    5    6 ar
    11    5   40 1
    12    6    7 ar
    13    6   41 1
    14    7    8 ar
    15    7   42 1
    16    8    9 1
    17    9   34 am
    18    9   10 am
    19   10   11 2
    20   10   12 1
    21   12   13 2
    22   12   31 1
    23   13   14 1
    24   13   43 1
    25   14   15 1
    26   14   44 1
    27   15   16 1
    28   15   17 1
    29   15   27 1
    30   17   18 1
    31   17   45 1
    32   17   46 1
    33   18   26 1
    34   18   19 2
    35   19   24 ar
    36   19   20 ar
    37   20   21 ar
    38   20   47 1
    39   21   22 ar
    40   21   48 1
    41   22   23 ar
    42   22   49 1
    43   23   24 ar
    44   23   50 1
    45   24   25 2
    46   25   26 1
    47   25   57 1
    48   26   51 1
    49   26   52 1
    50   27   28 2
    51   27   29 1
    52   29   30 1
    53   30   53 1
    54   30   54 1
    55   30   55 1
    56   31   32 2
    57   31   33 am
    58   33   34 am
    59   33   56 1
    60   34   35 2
@<TRIPOS>MOLECULE
ZINC40375140
   54    57     0     0     0
SMALL
USER_CHARGES

@<TRIPOS>ATOM
      1 C1         -0.0184    1.5028    0.0103 C.3       1 <0>        -0.1160
      2 C2          0.0021   -0.0041    0.0020 C.ar      1 <0>        -0.0949
      3 C3          0.0056   -0.6861   -1.2072 C.ar      1 <0>        -0.0928
      4 C4          0.0237   -2.0631   -1.2372 C.ar      1 <0>        -0.1171
      5 C5          0.0391   -2.7800   -0.0450 C.ar      1 <0>         0.0892
      6 C6          0.0359   -2.0843    1.1776 C.ar      1 <0>        -0.0941
      7 C7          0.0226   -0.6880    1.1846 C.ar      1 <0>        -0.0855
      8 C8          0.0547   -3.1075    2.2257 C.2       1 <0>        -0.2079
      9 C9          0.0674   -4.3001    1.6096 C.2       1 <0>         0.0874
     10 N1          0.0584   -4.1242    0.2526 N.pl3     1 <0>        -0.5868
     11 H1          0.0650   -4.8399   -0.4021 H         1 <0>         0.4231
     12 C10         0.0592   -2.8670    3.7133 C.3       1 <0>        -0.0545
     13 C11        -1.3778   -2.6802    4.2042 C.3       1 <0>        -0.0242
     14 N2         -1.3734   -2.4457    5.6543 N.4       1 <0>        -0.4941
     15 C12        -2.7531   -2.2663    6.1256 C.3       1 <0>        -0.0033
     16 H2         -3.3730   -3.1108    5.8243 H         1 <0>         0.1959
     17 C13        -2.7848   -2.0889    7.6573 C.3       1 <0>        -0.1656
     18 C14        -3.3748   -0.7079    7.8423 C.2       1 <0>         0.5235
     19 O1         -3.5763   -0.1674    8.9086 O.2       1 <0>        -0.4183
     20 N3         -3.6387   -0.1773    6.6418 N.am      1 <0>        -0.5138
     21 C15        -3.3300   -0.9689    5.6027 C.2       1 <0>         0.5173
     22 O2         -3.4860   -0.6906    4.4331 O.2       1 <0>        -0.4138
     23 C16        -4.1948    1.1014    6.4822 C.ar      1 <0>         0.0998
     24 C17        -3.3685    2.2092    6.3647 C.ar      1 <0>        -0.0521
     25 C18        -3.9182    3.4673    6.2077 C.ar      1 <0>        -0.0820
     26 C19        -5.2914    3.6255    6.1673 C.ar      1 <0>         0.0196
     27 C20        -6.1211    2.5262    6.2837 C.ar      1 <0>        -0.1405
     28 C21        -5.5775    1.2605    6.4357 C.ar      1 <0>         0.1623
     29 O3         -6.3921    0.1776    6.5448 O.3       1 <0>        -0.3046
     30 C22        -7.7999    0.4165    6.4885 C.3       1 <0>         0.0153
     31 N4         -5.8742    4.9758    5.9994 N.pl3     1 <0>         0.0220
     32 O4         -5.1499    5.9385    5.8978 O.2       1 <0>        -0.1301
     33 O5         -7.0745    5.1159    5.9639 O.3       1 <0>        -0.1386
     34 H3          1.0042    1.8801    0.0026 H         1 <0>         0.0726
     35 H4         -0.5455    1.8639   -0.8728 H         1 <0>         0.0696
     36 H5         -0.5286    1.8543    0.9071 H         1 <0>         0.0639
     37 H6         -0.0063   -0.1313   -2.1338 H         1 <0>         0.1312
     38 H7          0.0256   -2.5845   -2.1830 H         1 <0>         0.1261
     39 H8          0.0245   -0.1507    2.1214 H         1 <0>         0.1162
     40 H9          0.0823   -5.2567    2.1107 H         1 <0>         0.1735
     41 H10         0.5073   -3.7227    4.2184 H         1 <0>         0.0945
     42 H11         0.6382   -1.9704    3.9346 H         1 <0>         0.0922
     43 H12        -1.8259   -1.8244    3.6991 H         1 <0>         0.1457
     44 H13        -1.9568   -3.5768    3.9829 H         1 <0>         0.1399
     45 H14        -0.9586   -3.2378    6.1218 H         1 <0>         0.4412
     46 H15        -3.4226   -2.8434    8.1178 H         1 <0>         0.1661
     47 H16        -1.7767   -2.1338    8.0696 H         1 <0>         0.1487
     48 H17        -2.2958    2.0886    6.3963 H         1 <0>         0.1601
     49 H18        -3.2737    4.3291    6.1167 H         1 <0>         0.1721
     50 H19        -7.1932    2.6531    6.2518 H         1 <0>         0.1731
     51 H20        -8.3331   -0.5291    6.5873 H         1 <0>         0.1176
     52 H21        -8.0882    1.0828    7.3015 H         1 <0>         0.0708
     53 H22        -8.0523    0.8778    5.5337 H         1 <0>         0.0700
     54 H23        -0.8374   -1.6157    5.8592 H         1 <0>         0.4306
@<TRIPOS>BOND
     1    1    2 1
     2    1   34 1
     3    1   35 1
     4    1   36 1
     5    2    7 ar
     6    2    3 ar
     7    3    4 ar
     8    3   37 1
     9    4    5 ar
    10    4   38 1
    11    5   10 1
    12    5    6 ar
    13    6    7 ar
    14    6    8 1
    15    7   39 1
    16    8    9 2
    17    8   12 1
    18    9   10 1
    19    9   40 1
    20   10   11 1
    21   12   13 1
    22   12   41 1
    23   12   42 1
    24   13   14 1
    25   13   43 1
    26   13   44 1
    27   14   15 1
    28   14   45 1
    29   14   54 1
    30   15   16 1
    31   15   21 1
    32   15   17 1
    33   17   18 1
    34   17   46 1
    35   17   47 1
    36   18   19 2
    37   18   20 am
    38   20   21 am
    39   20   23 1
    40   21   22 2
    41   23   28 ar
    42   23   24 ar
    43   24   25 ar
    44   24   48 1
    45   25   26 ar
    46   25   49 1
    47   26   27 ar
    48   26   31 1
    49   27   28 ar
    50   27   50 1
    51   28   29 1
    52   29   30 1
    53   30   51 1
    54   30   52 1
    55   30   53 1
    56   31   32 2
    57   31   33 1
@<TRIPOS>MOLECULE
ZINC02335642
   57    61     0     0     0
SMALL
USER_CHARGES
9-[[3-(benzo[1,3]dioxol-5-ylmethyl)-4-oxo-2-thioxo-thiazolidin-5-ylidene]methyl]-8-(3-methoxypropylamino)-1,7-diazabicyclo[4.4.0]deca-2,4,6,8-tetraen-10-one
@<TRIPOS>ATOM
      1 C1         -0.7442   15.8674   -6.1125 C.3       1 <0>         0.0316
      2 O1         -0.9993   14.7679   -5.2361 O.3       1 <0>        -0.3915
      3 C2         -0.1225   14.7071   -4.1094 C.3       1 <0>         0.0672
      4 C3         -0.4856   13.4978   -3.2452 C.3       1 <0>        -0.1375
      5 C4          0.4532   13.4328   -2.0389 C.3       1 <0>         0.1244
      6 N1          0.1056   12.2749   -1.2114 N.pl3     1 <0>        -0.6825
      7 C5          0.8188   12.0100   -0.0628 C.2       1 <0>         0.5195
      8 C6          0.4873   10.8931    0.7400 C.2       1 <0>        -0.4255
      9 C7          1.2505   10.6552    1.9079 C.2       1 <0>         0.5500
     10 O2          1.0030    9.7022    2.6265 O.2       1 <0>        -0.5133
     11 N2          2.2572   11.5021    2.2132 N.am      1 <0>        -0.4383
     12 C8          2.9976   11.2806    3.3362 C.2       1 <0>         0.1146
     13 C9          4.0122   12.1091    3.6708 C.2       1 <0>        -0.1733
     14 C10         4.3155   13.2119    2.8608 C.2       1 <0>        -0.0094
     15 C11         3.5810   13.4421    1.7355 C.2       1 <0>        -0.1502
     16 C12         2.5295   12.5692    1.4031 C.2       1 <0>         0.4462
     17 N3          1.8173   12.8019    0.3001 N.2       1 <0>        -0.5797
     18 C13        -0.5763   10.0326    0.3811 C.2       1 <0>         0.1943
     19 C14        -1.8304   10.5382    0.1957 C.2       1 <0>        -0.2973
     20 C15        -3.0083    9.8897   -0.2733 C.2       1 <0>         0.5467
     21 O3         -2.9947    8.7103   -0.5789 O.2       1 <0>        -0.4658
     22 N4         -4.1168   10.6033   -0.3672 N.am      1 <0>        -0.5190
     23 C16        -4.1305   11.9130   -0.0330 C.2       1 <0>         0.2805
     24 S1         -5.4358   13.0198   -0.0817 S.2       1 <0>        -0.3415
     25 S2         -2.4413   12.1947    0.4754 S.3       1 <0>         0.0653
     26 C17        -5.3466    9.9673   -0.8461 C.3       1 <0>         0.1331
     27 C18        -6.1069    9.3990    0.3244 C.ar      1 <0>        -0.1154
     28 C19        -5.8700    8.1006    0.7358 C.ar      1 <0>        -0.0798
     29 C20        -6.5645    7.5749    1.8093 C.ar      1 <0>        -0.1058
     30 C21        -7.5011    8.3488    2.4752 C.ar      1 <0>         0.0470
     31 C22        -7.7401    9.6566    2.0604 C.ar      1 <0>         0.0274
     32 C23        -7.0399   10.1770    0.9840 C.ar      1 <0>        -0.0745
     33 O4         -8.6950   10.2057    2.8700 O.3       1 <0>        -0.3044
     34 C24        -8.7442    9.3571    4.0322 C.3       1 <0>         0.2117
     35 O5         -8.3070    8.0756    3.5425 O.3       1 <0>        -0.3069
     36 H1          0.2722   15.7953   -6.4995 H         1 <0>         0.0426
     37 H2         -1.4513   15.8427   -6.9417 H         1 <0>         0.0882
     38 H3         -0.8590   16.8028   -5.5648 H         1 <0>         0.0437
     39 H4         -0.2244   15.6185   -3.5201 H         1 <0>         0.0556
     40 H5          0.9068   14.6110   -4.4548 H         1 <0>         0.0538
     41 H6         -0.3837   12.5865   -3.8345 H         1 <0>         0.0786
     42 H7         -1.5149   13.5940   -2.8998 H         1 <0>         0.0814
     43 H8          0.3513   14.3441   -1.4496 H         1 <0>         0.0827
     44 H9          1.4826   13.3367   -2.3843 H         1 <0>         0.0799
     45 H10        -0.6266   11.6947   -1.4723 H         1 <0>         0.4145
     46 H11         2.7711   10.4330    3.9660 H         1 <0>         0.1864
     47 H12         4.5902   11.9205    4.5634 H         1 <0>         0.1646
     48 H13         5.1255   13.8752    3.1264 H         1 <0>         0.1586
     49 H14         3.8049   14.2890    1.1039 H         1 <0>         0.1710
     50 H15        -0.3961    8.9753    0.2539 H         1 <0>         0.1541
     51 H16        -5.0945    9.1651   -1.5397 H         1 <0>         0.1187
     52 H17        -5.9638   10.7074   -1.3555 H         1 <0>         0.1222
     53 H18        -5.1408    7.4956    0.2175 H         1 <0>         0.1448
     54 H19        -6.3770    6.5605    2.1290 H         1 <0>         0.1396
     55 H20        -7.2234   11.1908    0.6600 H         1 <0>         0.1515
     56 H21        -9.7620    9.2932    4.4169 H         1 <0>         0.1343
     57 H22        -8.0668    9.7240    4.8033 H         1 <0>         0.0855
@<TRIPOS>BOND
     1    1    2 1
     2    1   36 1
     3    1   37 1
     4    1   38 1
     5    2    3 1
     6    3    4 1
     7    3   39 1
     8    3   40 1
     9    4    5 1
    10    4   41 1
    11    4   42 1
    12    5    6 1
    13    5   43 1
    14    5   44 1
    15    6    7 1
    16    6   45 1
    17    7   17 1
    18    7    8 2
    19    8    9 1
    20    8   18 1
    21    9   10 2
    22    9   11 am
    23   11   16 1
    24   11   12 1
    25   12   13 2
    26   12   46 1
    27   13   14 1
    28   13   47 1
    29   14   15 2
    30   14   48 1
    31   15   16 1
    32   15   49 1
    33   16   17 2
    34   18   19 2
    35   18   50 1
    36   19   25 1
    37   19   20 1
    38   20   21 2
    39   20   22 am
    40   22   23 1
    41   22   26 1
    42   23   24 2
    43   23   25 1
    44   26   27 1
    45   26   51 1
    46   26   52 1
    47   27   32 ar
    48   27   28 ar
    49   28   29 ar
    50   28   53 1
    51   29   30 ar
    52   29   54 1
    53   30   35 1
    54   30   31 ar
    55   31   32 ar
    56   31   33 1
    57   32   55 1
    58   33   34 1
    59   34   35 1
    60   34   56 1
    61   34   57 1
@<TRIPOS>MOLECULE
ZINC12484390
   59    62     0     0     0
SMALL
USER_CHARGES
(5S)-3-[2-[4-(4-chlorophenyl)sulfonylpiperazin-1-yl]-2-oxo-ethyl]-5-phenethyl-imidazolidine-2,4-dione
@<TRIPOS>ATOM
      1 C1         -0.0126    1.0758    0.0080 C.ar      1 <0>        -0.1218
      2 C2         -1.2190    1.7506    0.0173 C.ar      1 <0>        -0.1181
      3 C3         -1.2377    3.1328    0.0303 C.ar      1 <0>        -0.1161
      4 C4         -0.0501    3.8402    0.0223 C.ar      1 <0>        -0.0868
      5 C5          1.1563    3.1654    0.0076 C.ar      1 <0>        -0.1153
      6 C6          1.1750    1.7832    0.0004 C.ar      1 <0>        -0.1177
      7 C7         -0.0705    5.3471    0.0302 C.3       1 <0>        -0.0783
      8 C8         -0.0909    5.8643   -1.4096 C.3       1 <0>        -0.1138
      9 C9         -0.1117    7.3942   -1.4016 C.3       1 <0>         0.0964
     10 H1          0.7175    7.7847   -0.8117 H         1 <0>         0.1329
     11 C10        -0.0612    7.9356   -2.8166 C.2       1 <0>         0.5331
     12 O1          0.8240    7.7777   -3.6298 O.2       1 <0>        -0.4585
     13 N1         -1.2093    8.6291   -2.9792 N.am      1 <0>        -0.5644
     14 C11        -1.9642    8.6015   -1.8749 C.2       1 <0>         0.7097
     15 O2         -3.0418    9.1553   -1.7792 O.2       1 <0>        -0.5381
     16 N2         -1.3971    7.8924   -0.8823 N.am      1 <0>        -0.7196
     17 C12        -1.5801    9.3278   -4.2123 C.3       1 <0>         0.0997
     18 C13        -1.0616   10.7419   -4.1638 C.2       1 <0>         0.5069
     19 O3         -0.4432   11.1282   -3.1946 O.2       1 <0>        -0.5224
     20 N3         -1.2850   11.5775   -5.1975 N.am      1 <0>        -0.6074
     21 C14        -2.0275   11.1213   -6.3809 C.3       1 <0>         0.0870
     22 C15        -3.2114   12.0763   -6.6091 C.3       1 <0>         0.1025
     23 N4         -2.7117   13.4580   -6.5755 N.pl3     1 <0>        -0.9961
     24 C16        -1.9644   13.9125   -5.3945 C.3       1 <0>         0.1052
     25 C17        -0.7853   12.9591   -5.1639 C.3       1 <0>         0.0973
     26 S1         -2.9853   14.4843   -7.8461 S.o2      1 <0>         2.6907
     27 O4         -4.1369   13.9970   -8.5210 O.2       1 <0>        -0.9463
     28 O5         -2.9090   15.8043   -7.3256 O.2       1 <0>        -0.9459
     29 C18        -1.6336   14.3039   -8.9619 C.ar      1 <0>        -0.6794
     30 C19        -0.5156   15.1060   -8.8282 C.ar      1 <0>        -0.0067
     31 C20         0.5473   14.9611   -9.6997 C.ar      1 <0>        -0.1301
     32 C21         0.4876   14.0209  -10.7129 C.ar      1 <0>         0.0183
     33 C22        -0.6339   13.2224  -10.8497 C.ar      1 <0>        -0.1305
     34 C23        -1.6939   13.3644   -9.9741 C.ar      1 <0>        -0.0074
     35 Cl1         1.8196   13.8428  -11.8119 Cl        1 <0>        -0.0503
     36 H2          0.0021   -0.0041    0.0020 H         1 <0>         0.1217
     37 H3         -2.1469    1.1980    0.0187 H         1 <0>         0.1222
     38 H4         -2.1802    3.6600    0.0422 H         1 <0>         0.1211
     39 H5          2.0841    3.7181    0.0014 H         1 <0>         0.1230
     40 H6          2.1175    1.2560   -0.0115 H         1 <0>         0.1227
     41 H7         -0.9605    5.6956    0.5541 H         1 <0>         0.0754
     42 H8          0.8192    5.7199    0.5376 H         1 <0>         0.0809
     43 H9          0.7990    5.5158   -1.9336 H         1 <0>         0.0942
     44 H10        -0.9807    5.4915   -1.9170 H         1 <0>         0.0792
     45 H11        -1.7634    7.7386    0.0026 H         1 <0>         0.4423
     46 H12        -1.1454    8.8106   -5.0677 H         1 <0>         0.1270
     47 H13        -2.6656    9.3420   -4.3095 H         1 <0>         0.1303
     48 H14        -1.3715   11.1332   -7.2513 H         1 <0>         0.0835
     49 H15        -2.3982   10.1102   -6.2129 H         1 <0>         0.0996
     50 H16        -3.9538   11.9367   -5.8233 H         1 <0>         0.0890
     51 H17        -3.6612   11.8735   -7.5810 H         1 <0>         0.1084
     52 H18        -2.6181   13.9035   -4.5223 H         1 <0>         0.0868
     53 H19        -1.5907   14.9222   -5.5643 H         1 <0>         0.1069
     54 H20        -0.3355   13.1620   -4.1920 H         1 <0>         0.1084
     55 H21        -0.0407   13.0980   -5.9477 H         1 <0>         0.0765
     56 H22        -0.4709   15.8428   -8.0399 H         1 <0>         0.1501
     57 H23         1.4226   15.5847   -9.5924 H         1 <0>         0.1458
     58 H24        -0.6810   12.4881  -11.6402 H         1 <0>         0.1459
     59 H25        -2.5693   12.7409  -10.0806 H         1 <0>         0.1503
@<TRIPOS>BOND
     1    1    6 ar
     2    1    2 ar
     3    1   36 1
     4    2    3 ar
     5    2   37 1
     6    3    4 ar
     7    3   38 1
     8    4    5 ar
     9    4    7 1
    10    5    6 ar
    11    5   39 1
    12    6   40 1
    13    7    8 1
    14    7   41 1
    15    7   42 1
    16    8    9 1
    17    8   43 1
    18    8   44 1
    19    9   10 1
    20    9   16 1
    21    9   11 1
    22   11   12 2
    23   11   13 am
    24   13   14 am
    25   13   17 1
    26   14   15 2
    27   14   16 am
    28   16   45 1
    29   17   18 1
    30   17   46 1
    31   17   47 1
    32   18   19 2
    33   18   20 am
    34   20   25 1
    35   20   21 1
    36   21   22 1
    37   21   48 1
    38   21   49 1
    39   22   23 1
    40   22   50 1
    41   22   51 1
    42   23   24 1
    43   23   26 1
    44   24   25 1
    45   24   52 1
    46   24   53 1
    47   25   54 1
    48   25   55 1
    49   26   27 2
    50   26   28 2
    51   26   29 1
    52   29   34 ar
    53   29   30 ar
    54   30   31 ar
    55   30   56 1
    56   31   32 ar
    57   31   57 1
    58   32   33 ar
    59   32   35 1
    60   33   34 ar
    61   33   58 1
    62   34   59 1
@<TRIPOS>MOLECULE
ZINC12483291
   60    63     0     0     0
SMALL
USER_CHARGES
N,N-diethyl-3-[(4Z)-4-[[(5-ethyl-1,3,4-thiadiazol-2-yl)amino]methylene]-1,3-dioxo-2-isoquinolyl]benzenesulfonamide
@<TRIPOS>ATOM
      1 C1          8.2750   -2.5125    6.8586 C.3       1 <0>        -0.1524
      2 C2          8.8678   -2.4689    5.4488 C.3       1 <0>        -0.0309
      3 C3          7.7759   -2.1715    4.4537 C.2       1 <0>         0.0736
      4 N1          7.3361   -1.0147    3.9989 N.2       1 <0>        -0.2516
      5 N2          6.4046   -0.9363    3.1521 N.2       1 <0>        -0.3205
      6 C4          5.8004   -2.0163    2.6752 C.2       1 <0>         0.2759
      7 S1          6.7050   -3.2883    3.5526 S.3       1 <0>        -0.0001
      8 N3          4.7668   -2.1286    1.7548 N.pl3     1 <0>        -0.5760
      9 C5          4.2200   -1.0102    1.2061 C.2       1 <0>         0.2798
     10 C6          3.2271   -1.1230    0.2580 C.2       1 <0>        -0.2893
     11 C7          2.4971    0.0677   -0.2245 C.ar      1 <0>         0.0445
     12 C8          2.7785    1.3423    0.2535 C.ar      1 <0>        -0.1380
     13 C9          2.0681    2.4227   -0.2284 C.ar      1 <0>        -0.0639
     14 C10         1.0780    2.2458   -1.1841 C.ar      1 <0>        -0.1413
     15 C11         0.7848    0.9900   -1.6700 C.ar      1 <0>        -0.0320
     16 C12         1.4912   -0.1161   -1.1960 C.ar      1 <0>        -0.1624
     17 C13         1.2099   -1.4711   -1.6868 C.2       1 <0>         0.5696
     18 O1          0.3433   -1.6358   -2.5244 O.2       1 <0>        -0.4838
     19 N4          1.8934   -2.5316   -1.2266 N.am      1 <0>        -0.5131
     20 C14         2.8625   -2.4293   -0.3025 C.2       1 <0>         0.5878
     21 O2          3.4446   -3.4302    0.0736 O.2       1 <0>        -0.5202
     22 C15         1.5817   -3.8002   -1.7326 C.ar      1 <0>         0.0973
     23 C16         0.6939   -4.6223   -1.0511 C.ar      1 <0>        -0.0390
     24 C17         0.3883   -5.8721   -1.5526 C.ar      1 <0>        -0.1265
     25 C18         0.9651   -6.3052   -2.7327 C.ar      1 <0>        -0.0065
     26 C19         1.8497   -5.4892   -3.4133 C.ar      1 <0>        -0.6688
     27 C20         2.1553   -4.2359   -2.9194 C.ar      1 <0>         0.0050
     28 S2          2.5824   -6.0457   -4.9160 S.o2      1 <0>         2.6890
     29 O3          3.7913   -5.3157   -5.0732 O.2       1 <0>        -0.9496
     30 O4          2.5489   -7.4659   -4.8826 O.2       1 <0>        -0.9503
     31 N5          1.5829   -5.5777   -6.1507 N.pl3     1 <0>        -0.9931
     32 C21         1.7737   -4.2754   -6.7939 C.3       1 <0>         0.1176
     33 C22         2.6370   -4.4463   -8.0455 C.3       1 <0>        -0.1761
     34 C23         0.5080   -6.4660   -6.5998 C.3       1 <0>         0.1058
     35 C24        -0.7945   -6.0894   -5.8908 C.3       1 <0>        -0.1797
     36 H1          9.0721   -2.7296    7.5849 H         1 <0>         0.0774
     37 H2          7.5081   -3.2994    6.9097 H         1 <0>         0.0601
     38 H3          7.8187   -1.5399    7.0947 H         1 <0>         0.0657
     39 H4          9.6347   -1.6820    5.3977 H         1 <0>         0.1109
     40 H5          9.3241   -3.4415    5.2127 H         1 <0>         0.0990
     41 H6          4.3901   -3.1219    1.4693 H         1 <0>         0.4715
     42 H7          4.5708   -0.0159    1.5196 H         1 <0>         0.1858
     43 H8          3.5481    1.4861    0.9975 H         1 <0>         0.1346
     44 H9          2.2846    3.4140    0.1413 H         1 <0>         0.1349
     45 H10         0.5341    3.1022   -1.5545 H         1 <0>         0.1350
     46 H11         0.0120    0.8625   -2.4136 H         1 <0>         0.1408
     47 H12         0.2426   -4.2844   -0.1299 H         1 <0>         0.1344
     48 H13        -0.3021   -6.5119   -1.0230 H         1 <0>         0.1443
     49 H14         0.7243   -7.2829   -3.1232 H         1 <0>         0.1476
     50 H15         2.8427   -3.5970   -3.4540 H         1 <0>         0.1407
     51 H16         0.7955   -3.8595   -7.0772 H         1 <0>         0.0840
     52 H17         2.2744   -3.5905   -6.0938 H         1 <0>         0.0801
     53 H18         2.7802   -3.4684   -8.5284 H         1 <0>         0.0711
     54 H19         2.1362   -5.1312   -8.7456 H         1 <0>         0.0614
     55 H20         3.6152   -4.8622   -7.7622 H         1 <0>         0.0642
     56 H21         0.3769   -6.3624   -7.6870 H         1 <0>         0.0886
     57 H22         0.7684   -7.5074   -6.3595 H         1 <0>         0.0958
     58 H23        -1.6016   -6.7564   -6.2280 H         1 <0>         0.0726
     59 H24        -1.0549   -5.0480   -6.1311 H         1 <0>         0.0632
     60 H25        -0.6633   -6.1930   -4.8036 H         1 <0>         0.0555
@<TRIPOS>BOND
     1    1    2 1
     2    1   36 1
     3    1   37 1
     4    1   38 1
     5    2    3 1
     6    2   39 1
     7    2   40 1
     8    3    7 1
     9    3    4 2
    10    4    5 1
    11    5    6 2
    12    6    7 1
    13    6    8 1
    14    8    9 1
    15    8   41 1
    16    9   10 2
    17    9   42 1
    18   10   20 1
    19   10   11 1
    20   11   16 ar
    21   11   12 ar
    22   12   13 ar
    23   12   43 1
    24   13   14 ar
    25   13   44 1
    26   14   15 ar
    27   14   45 1
    28   15   16 ar
    29   15   46 1
    30   16   17 1
    31   17   18 2
    32   17   19 am
    33   19   20 am
    34   19   22 1
    35   20   21 2
    36   22   27 ar
    37   22   23 ar
    38   23   24 ar
    39   23   47 1
    40   24   25 ar
    41   24   48 1
    42   25   26 ar
    43   25   49 1
    44   26   27 ar
    45   26   28 1
    46   27   50 1
    47   28   29 2
    48   28   30 2
    49   28   31 1
    50   31   32 1
    51   31   34 1
    52   32   33 1
    53   32   51 1
    54   32   52 1
    55   33   53 1
    56   33   54 1
    57   33   55 1
    58   34   35 1
    59   34   56 1
    60   34   57 1
    61   35   58 1
    62   35   59 1
    63   35   60 1
@<TRIPOS>MOLECULE
ZINC39265738
   68    73     0     0     0
SMALL
USER_CHARGES

@<TRIPOS>ATOM
      1 C1         -0.0167    1.3781    0.0096 C.ar      1 <0>        -0.1083
      2 C2          1.1709    2.0855    0.0021 C.ar      1 <0>        -0.1230
      3 C3          2.3773    1.4107   -0.0130 C.ar      1 <0>        -0.0933
      4 C4          2.3960    0.0285   -0.0201 C.ar      1 <0>        -0.0981
      5 C5          1.2084   -0.6789   -0.0117 C.ar      1 <0>        -0.0937
      6 C6          0.0021   -0.0041    0.0020 C.ar      1 <0>        -0.1236
      7 C7          3.7112   -0.7071   -0.0376 C.3       1 <0>         0.1313
      8 O1          4.1410   -0.9464    1.3041 O.3       1 <0>        -0.3566
      9 C8          5.3077   -1.5988    1.4650 C.2       1 <0>         0.6478
     10 O2          5.9435   -1.9553    0.4929 O.2       1 <0>        -0.5122
     11 N1          5.7703   -1.8565    2.7044 N.am      1 <0>        -0.5843
     12 C9          5.1019   -1.4890    3.9674 C.3       1 <0>         0.1032
     13 C10         5.6503   -2.4918    5.0134 C.3       1 <0>        -0.1286
     14 C11         7.1266   -2.6434    4.5577 C.3       1 <0>        -0.1185
     15 C12         7.0194   -2.5549    3.0243 C.3       1 <0>         0.1396
     16 C13         7.2240   -3.8820    2.2945 C.3       1 <0>         0.1842
     17 H1          6.4440   -4.1176    1.5705 H         1 <0>         0.1187
     18 N2          8.3909   -3.2004    1.7199 N.am      1 <0>        -0.5927
     19 C14         8.2471   -2.0103    2.3448 C.2       1 <0>         0.5482
     20 O3          8.8485   -0.9571    2.3539 O.2       1 <0>        -0.4824
     21 C15         9.3993   -3.6663    0.7647 C.3       1 <0>         0.0980
     22 C16         8.9426   -3.3584   -0.6380 C.2       1 <0>         0.4787
     23 O4          7.8795   -2.8045   -0.8218 O.2       1 <0>        -0.4801
     24 N3          9.7156   -3.6987   -1.6883 N.am      1 <0>        -0.7337
     25 C17         9.2716   -3.3995   -3.0520 C.3       1 <0>         0.1708
     26 C18        10.3089   -3.8787   -4.0346 C.ar      1 <0>        -0.0999
     27 C19        11.3323   -3.0346   -4.4237 C.ar      1 <0>        -0.0879
     28 C20        12.2865   -3.4697   -5.3243 C.ar      1 <0>        -0.1011
     29 C21        12.2188   -4.7539   -5.8398 C.ar      1 <0>         0.0403
     30 C22        11.1878   -5.6042   -5.4479 C.ar      1 <0>         0.0303
     31 C23        10.2383   -5.1632   -4.5404 C.ar      1 <0>        -0.0814
     32 O5         11.3409   -6.7997   -6.0886 O.3       1 <0>        -0.3077
     33 C24        12.2374   -6.5367   -7.1842 C.3       1 <0>         0.2128
     34 O6         13.0178   -5.4167   -6.7261 O.3       1 <0>        -0.3078
     35 C25         7.5638   -5.0377    3.2000 C.ar      1 <0>        -0.0926
     36 C26         8.8563   -5.1951    3.6643 C.ar      1 <0>        -0.1066
     37 C27         9.1680   -6.2552    4.4949 C.ar      1 <0>        -0.1157
     38 C28         8.1871   -7.1576    4.8615 C.ar      1 <0>        -0.1124
     39 C29         6.8944   -6.9997    4.3979 C.ar      1 <0>        -0.1142
     40 C30         6.5818   -5.9372    3.5707 C.ar      1 <0>        -0.0998
     41 H2         -0.9591    1.9053    0.0259 H         1 <0>         0.1247
     42 H3          1.1563    3.1654    0.0076 H         1 <0>         0.1259
     43 H4          3.3051    1.9634   -0.0196 H         1 <0>         0.1243
     44 H5          1.2231   -1.7588   -0.0176 H         1 <0>         0.1240
     45 H6         -0.9258   -0.5567    0.0082 H         1 <0>         0.1257
     46 H7          3.5884   -1.6586   -0.5549 H         1 <0>         0.0771
     47 H8          4.4573   -0.1052   -0.5563 H         1 <0>         0.0771
     48 H9          5.3592   -0.4680    4.2495 H         1 <0>         0.0758
     49 H10         4.0216   -1.5956    3.8697 H         1 <0>         0.0882
     50 H11         5.5929   -2.0769    6.0197 H         1 <0>         0.0944
     51 H12         5.1237   -3.4444    4.9547 H         1 <0>         0.0827
     52 H13         7.7379   -1.8323    4.9533 H         1 <0>         0.0917
     53 H14         7.5262   -3.6117    4.8591 H         1 <0>         0.1039
     54 H15        10.3448   -3.1596    0.9584 H         1 <0>         0.1086
     55 H16         9.5345   -4.7422    0.8749 H         1 <0>         0.1090
     56 H17        10.5659   -4.1418   -1.5414 H         1 <0>         0.3993
     57 H18         8.3262   -3.9062   -3.2457 H         1 <0>         0.0776
     58 H19         9.1364   -2.3235   -3.1622 H         1 <0>         0.0798
     59 H20        11.3863   -2.0329   -4.0234 H         1 <0>         0.1412
     60 H21        13.0849   -2.8082   -5.6266 H         1 <0>         0.1392
     61 H22         9.4402   -5.8220   -4.2313 H         1 <0>         0.1374
     62 H23        12.8776   -7.3989   -7.3707 H         1 <0>         0.1342
     63 H24        11.6783   -6.2723   -8.0817 H         1 <0>         0.0869
     64 H25         9.6226   -4.4900    3.3779 H         1 <0>         0.1227
     65 H26        10.1779   -6.3785    4.8572 H         1 <0>         0.1253
     66 H27         8.4308   -7.9863    5.5099 H         1 <0>         0.1244
     67 H28         6.1282   -7.7050    4.6840 H         1 <0>         0.1262
     68 H29         5.5711   -5.8117    3.2115 H         1 <0>         0.1245
@<TRIPOS>BOND
     1    1    6 ar
     2    1    2 ar
     3    1   41 1
     4    2    3 ar
     5    2   42 1
     6    3    4 ar
     7    3   43 1
     8    4    5 ar
     9    4    7 1
    10    5    6 ar
    11    5   44 1
    12    6   45 1
    13    7    8 1
    14    7   46 1
    15    7   47 1
    16    8    9 1
    17    9   10 2
    18    9   11 am
    19   11   15 1
    20   11   12 1
    21   12   13 1
    22   12   48 1
    23   12   49 1
    24   13   14 1
    25   13   50 1
    26   13   51 1
    27   14   15 1
    28   14   52 1
    29   14   53 1
    30   15   19 1
    31   15   16 1
    32   16   17 1
    33   16   18 1
    34   16   35 1
    35   18   19 am
    36   18   21 1
    37   19   20 2
    38   21   22 1
    39   21   54 1
    40   21   55 1
    41   22   23 2
    42   22   24 am
    43   24   25 1
    44   24   56 1
    45   25   26 1
    46   25   57 1
    47   25   58 1
    48   26   31 ar
    49   26   27 ar
    50   27   28 ar
    51   27   59 1
    52   28   29 ar
    53   28   60 1
    54   29   34 1
    55   29   30 ar
    56   30   31 ar
    57   30   32 1
    58   31   61 1
    59   32   33 1
    60   33   34 1
    61   33   62 1
    62   33   63 1
    63   35   40 ar
    64   35   36 ar
    65   36   37 ar
    66   36   64 1
    67   37   38 ar
    68   37   65 1
    69   38   39 ar
    70   38   66 1
    71   39   40 ar
    72   39   67 1
    73   40   68 1
@<TRIPOS>MOLECULE
ZINC20207981
   48    51     0     0     0
SMALL
USER_CHARGES

@<TRIPOS>ATOM
      1 C1         -0.6280    1.5274    0.0269 C.3       1 <0>        -0.1242
      2 C2         -0.4045    0.0412    0.1372 C.ar      1 <0>        -0.0438
      3 C3          0.8844   -0.4613    0.1637 C.ar      1 <0>        -0.1326
      4 C4          1.0963   -1.8206    0.2646 C.ar      1 <0>        -0.0462
      5 C5          0.0062   -2.6901    0.3400 C.ar      1 <0>        -0.1335
      6 C6         -1.2919   -2.1762    0.3127 C.ar      1 <0>        -0.0553
      7 C7         -1.4892   -0.8143    0.2172 C.ar      1 <0>        -0.1342
      8 C8          0.2252   -4.1469    0.4476 C.2       1 <0>         0.5112
      9 O1          1.3557   -4.5910    0.4707 O.2       1 <0>        -0.4782
     10 O2         -0.8289   -4.9832    0.5202 O.3       1 <0>        -0.2886
     11 C9         -0.5847   -6.3184    0.5125 C.ar      1 <0>         0.1197
     12 C10        -0.6332   -7.0245   -0.6847 C.ar      1 <0>        -0.1066
     13 C11        -0.3867   -8.3779   -0.6991 C.ar      1 <0>        -0.0587
     14 C12        -0.0860   -9.0461    0.4964 C.ar      1 <0>        -0.0696
     15 C13        -0.0383   -8.3298    1.7006 C.ar      1 <0>        -0.0593
     16 C14        -0.2812   -6.9744    1.7018 C.ar      1 <0>        -0.0398
     17 Cl1        -0.2159   -6.0837    3.1905 Cl        1 <0>        -0.0412
     18 C15         0.1769  -10.4874    0.4872 C.2       1 <0>         0.0882
     19 C16         0.9143  -11.0460   -0.5320 C.2       1 <0>        -0.2122
     20 C17         1.6168  -10.2070   -1.5442 C.2       1 <0>         0.4464
     21 N1          2.1288   -9.0360   -1.2746 N.2       1 <0>        -0.6079
     22 N2          1.6744  -10.8026   -2.8226 N.pl3     1 <0>        -0.4312
     23 C18         1.5640  -12.1749   -2.8908 C.2       1 <0>         0.3794
     24 N3          1.3139  -13.0057   -1.9099 N.2       1 <0>        -0.5229
     25 C19         1.0578  -12.5161   -0.6787 C.2       1 <0>         0.5506
     26 O3          0.9435  -13.2576    0.2839 O.2       1 <0>        -0.4287
     27 S1          1.8226  -12.4827   -4.6179 S.3       1 <0>         0.2145
     28 C20         1.9569  -10.7789   -5.1419 C.2       1 <0>        -0.4492
     29 N4          1.8436  -10.1341   -4.0162 N.2       1 <0>        -0.1204
     30 S2          2.1850  -10.1362   -6.7666 S.o2      1 <0>         2.5186
     31 O4          1.5385  -11.0704   -7.6201 O.2       1 <0>        -0.8916
     32 O5          1.7336   -8.7909   -6.6910 O.2       1 <0>        -0.8900
     33 C21         3.9782  -10.1793   -7.0374 C.3       1 <0>        -0.6340
     34 H1         -0.6679    1.9639    1.0249 H         1 <0>         0.0790
     35 H2          0.1912    1.9774   -0.5339 H         1 <0>         0.0726
     36 H3         -1.5689    1.7160   -0.4900 H         1 <0>         0.0728
     37 H4          1.7266    0.2123    0.1050 H         1 <0>         0.1354
     38 H5          2.1028   -2.2116    0.2848 H         1 <0>         0.1391
     39 H6         -2.1394   -2.8431    0.3702 H         1 <0>         0.1396
     40 H7         -2.4925   -0.4151    0.2004 H         1 <0>         0.1343
     41 H8         -0.8652   -6.5093   -1.6051 H         1 <0>         0.1454
     42 H9         -0.4251   -8.9249   -1.6296 H         1 <0>         0.1276
     43 H10         0.1924   -8.8391    2.6246 H         1 <0>         0.1521
     44 H11        -0.2078  -11.1115    1.2802 H         1 <0>         0.1705
     45 H12         2.5127   -8.4992   -1.9856 H         1 <0>         0.3658
     46 H13         4.3332  -11.2066   -6.9567 H         1 <0>         0.1429
     47 H14         4.2048   -9.7935   -8.0314 H         1 <0>         0.1527
     48 H15         4.4739   -9.5635   -6.2870 H         1 <0>         0.1415
@<TRIPOS>BOND
     1    1    2 1
     2    1   34 1
     3    1   35 1
     4    1   36 1
     5    2    7 ar
     6    2    3 ar
     7    3    4 ar
     8    3   37 1
     9    4    5 ar
    10    4   38 1
    11    5    6 ar
    12    5    8 1
    13    6    7 ar
    14    6   39 1
    15    7   40 1
    16    8    9 2
    17    8   10 1
    18   10   11 1
    19   11   16 ar
    20   11   12 ar
    21   12   13 ar
    22   12   41 1
    23   13   14 ar
    24   13   42 1
    25   14   15 ar
    26   14   18 1
    27   15   16 ar
    28   15   43 1
    29   16   17 1
    30   18   19 2
    31   18   44 1
    32   19   25 1
    33   19   20 1
    34   20   21 2
    35   20   22 1
    36   21   45 1
    37   22   29 1
    38   22   23 1
    39   23   24 2
    40   23   27 1
    41   24   25 1
    42   25   26 2
    43   27   28 1
    44   28   29 2
    45   28   30 1
    46   30   31 2
    47   30   32 2
    48   30   33 1
    49   33   46 1
    50   33   47 1
    51   33   48 1
@<TRIPOS>MOLECULE
ZINC02778931
   56    59     0     0     0
SMALL
USER_CHARGES
2-ethyl-N-(methyl-oxo-tert-butyl-BLAHyl)-pyrazole-3-carboxamide
@<TRIPOS>ATOM
      1 C1          2.5484   -4.3716  -11.1273 C.3       1 <0>        -0.1636
      2 C2          1.7703   -5.2031  -10.1055 C.3       1 <0>         0.1043
      3 N1          2.6465   -6.2366   -9.5482 N.pl3     1 <0>        -0.2448
      4 C3          3.4009   -6.1030   -8.4172 C.2       1 <0>        -0.0397
      5 C4          4.0747   -7.3014   -8.2579 C.2       1 <0>        -0.1798
      6 C5          3.6640   -8.1017   -9.3264 C.2       1 <0>         0.0009
      7 N2          2.8231   -7.4061  -10.0488 N.2       1 <0>        -0.2625
      8 C6          3.4850   -4.9198   -7.5462 C.2       1 <0>         0.6066
      9 O1          2.7662   -3.9605   -7.7524 O.2       1 <0>        -0.5045
     10 N3          4.3586   -4.8991   -6.5201 N.am      1 <0>        -0.5220
     11 N4          4.5046   -3.7395   -5.7477 N.am      1 <0>        -0.3206
     12 C7          5.6097   -2.9773   -5.9297 C.2       1 <0>         0.4022
     13 N5          5.8374   -1.8726   -5.2538 N.2       1 <0>        -0.4500
     14 C8          4.9271   -1.5065   -4.3567 C.2       1 <0>         0.0830
     15 C9          3.7441   -2.2325   -4.0949 C.2       1 <0>        -0.2405
     16 C10         3.5343   -3.4326   -4.8543 C.2       1 <0>         0.5680
     17 O2          2.5460   -4.1303   -4.7049 O.2       1 <0>        -0.4896
     18 C11         2.8654   -1.6811   -3.0794 C.2       1 <0>        -0.0487
     19 C12         3.2671   -0.5312   -2.4884 C.2       1 <0>        -0.1683
     20 S1          4.8203   -0.1350   -3.2513 S.3       1 <0>         0.1658
     21 C13         2.5519    0.2378   -1.4210 C.3       1 <0>        -0.0366
     22 C14         1.1042   -0.2675   -1.3442 C.3       1 <0>        -0.0703
     23 H1          0.5498    0.0769   -2.2172 H         1 <0>         0.0775
     24 C15         1.1168   -1.7987   -1.3148 C.3       1 <0>        -0.1201
     25 C16         1.5493   -2.3411   -2.6763 C.3       1 <0>        -0.0588
     26 C17         0.4413    0.2649   -0.0722 C.3       1 <0>        -0.0621
     27 C18         0.4377    1.7947   -0.1010 C.3       1 <0>        -0.1458
     28 C19         1.2218   -0.2203    1.1511 C.3       1 <0>        -0.1486
     29 C20        -0.9984   -0.2471    0.0053 C.3       1 <0>        -0.1453
     30 C21         6.6249   -3.4158   -6.9535 C.3       1 <0>        -0.1118
     31 H2          1.8965   -3.6027  -11.5419 H         1 <0>         0.0845
     32 H3          3.4010   -3.9002  -10.6385 H         1 <0>         0.0615
     33 H4          2.9019   -5.0194  -11.9294 H         1 <0>         0.0670
     34 H5          0.9177   -5.6746  -10.5943 H         1 <0>         0.1041
     35 H6          1.4168   -4.5553   -9.3034 H         1 <0>         0.1183
     36 H7          4.7691   -7.5628   -7.4731 H         1 <0>         0.1640
     37 H8          3.9868   -9.1131   -9.5242 H         1 <0>         0.1920
     38 H9          4.8863   -5.6872   -6.3165 H         1 <0>         0.4307
     39 H10         2.5567    1.2993   -1.6687 H         1 <0>         0.0852
     40 H11         3.0451    0.0835   -0.4613 H         1 <0>         0.0918
     41 H12         1.8171   -2.1406   -0.5527 H         1 <0>         0.0682
     42 H13         0.1178   -2.1646   -1.0775 H         1 <0>         0.0770
     43 H14         0.7838   -2.1117   -3.4175 H         1 <0>         0.0784
     44 H15         1.6867   -3.4206   -2.6129 H         1 <0>         0.0850
     45 H16         1.4634    2.1594   -0.1562 H         1 <0>         0.0571
     46 H17        -0.1183    2.1403   -0.9725 H         1 <0>         0.0555
     47 H18        -0.0345    2.1740    0.8052 H         1 <0>         0.0561
     48 H19         0.7495    0.1591    2.0573 H         1 <0>         0.0554
     49 H20         1.2243   -1.3101    1.1716 H         1 <0>         0.0587
     50 H21         2.2474    0.1445    1.0958 H         1 <0>         0.0581
     51 H22        -1.5544    0.0986   -0.8661 H         1 <0>         0.0553
     52 H23        -0.9958   -1.3369    0.0259 H         1 <0>         0.0595
     53 H24        -1.4706    0.1323    0.9115 H         1 <0>         0.0559
     54 H25         6.3771   -2.9794   -7.9211 H         1 <0>         0.1042
     55 H26         7.6166   -3.0823   -6.6478 H         1 <0>         0.1126
     56 H27         6.6154   -4.5029   -7.0321 H         1 <0>         0.0895
@<TRIPOS>BOND
     1    1    2 1
     2    1   31 1
     3    1   32 1
     4    1   33 1
     5    2    3 1
     6    2   34 1
     7    2   35 1
     8    3    7 1
     9    3    4 1
    10    4    5 2
    11    4    8 1
    12    5    6 1
    13    5   36 1
    14    6    7 2
    15    6   37 1
    16    8    9 2
    17    8   10 am
    18   10   11 1
    19   10   38 1
    20   11   16 am
    21   11   12 1
    22   12   13 2
    23   12   30 1
    24   13   14 1
    25   14   20 1
    26   14   15 2
    27   15   16 1
    28   15   18 1
    29   16   17 2
    30   18   25 1
    31   18   19 2
    32   19   20 1
    33   19   21 1
    34   21   22 1
    35   21   39 1
    36   21   40 1
    37   22   23 1
    38   22   24 1
    39   22   26 1
    40   24   25 1
    41   24   41 1
    42   24   42 1
    43   25   43 1
    44   25   44 1
    45   26   27 1
    46   26   28 1
    47   26   29 1
    48   27   45 1
    49   27   46 1
    50   27   47 1
    51   28   48 1
    52   28   49 1
    53   28   50 1
    54   29   51 1
    55   29   52 1
    56   29   53 1
    57   30   54 1
    58   30   55 1
    59   30   56 1
@<TRIPOS>MOLECULE
ZINC12579614
   35    36     0     0     0
SMALL
USER_CHARGES
3-bromo-N-[(2-chloro-5-nitro-phenyl)methyleneamino]-4-methoxy-benzamide
@<TRIPOS>ATOM
      1 C1          9.8293   -3.5003   -0.1102 C.3       1 <0>         0.0205
      2 O1          8.6455   -4.3007   -0.1033 O.3       1 <0>        -0.2952
      3 C2          7.4577   -3.6440   -0.0885 C.ar      1 <0>         0.1890
      4 C3          7.4341   -2.2544   -0.0803 C.ar      1 <0>        -0.2098
      5 C4          6.2313   -1.5842   -0.0716 C.ar      1 <0>        -0.0288
      6 C5          5.0327   -2.3030   -0.0582 C.ar      1 <0>        -0.1718
      7 C6          5.0600   -3.7001   -0.0660 C.ar      1 <0>         0.0153
      8 C7          6.2677   -4.3634   -0.0810 C.ar      1 <0>        -0.1373
      9 Br1         6.3069   -6.2540   -0.0909 Br        1 <0>        -0.0182
     10 C8          3.7418   -1.5885   -0.0421 C.2       1 <0>         0.5857
     11 O2          2.6997   -2.2156   -0.0355 O.2       1 <0>        -0.4889
     12 N1          3.7174   -0.2410   -0.0347 N.am      1 <0>        -0.5803
     13 N2          2.4917    0.4374   -0.0193 N.2       1 <0>        -0.1860
     14 C9          2.4683    1.7351   -0.0122 C.2       1 <0>         0.0861
     15 C10         1.1783    2.4491    0.0040 C.ar      1 <0>        -0.0401
     16 C11         1.1491    3.8458    0.0113 C.ar      1 <0>        -0.0172
     17 C12        -0.0610    4.5070    0.0259 C.ar      1 <0>        -0.0456
     18 C13        -1.2454    3.7908    0.0329 C.ar      1 <0>        -0.0301
     19 C14        -1.2255    2.4078    0.0209 C.ar      1 <0>        -0.1117
     20 C15        -0.0215    1.7317    0.0116 C.ar      1 <0>         0.0255
     21 Cl1         0.0021   -0.0041    0.0020 Cl        1 <0>         0.0196
     22 N3         -0.0934    5.9868    0.0336 N.pl3     1 <0>         0.0270
     23 O3          0.9478    6.6188    0.0271 O.2       1 <0>        -0.1522
     24 O4         -1.1612    6.5726    0.0465 O.3       1 <0>        -0.1494
     25 H1         10.7059   -4.1481   -0.1220 H         1 <0>         0.1097
     26 H2          9.8341   -2.8664   -0.9969 H         1 <0>         0.0626
     27 H3          9.8510   -2.8759    0.7829 H         1 <0>         0.0626
     28 H4          8.3606   -1.6994   -0.0858 H         1 <0>         0.1474
     29 H5          6.2141   -0.5043   -0.0702 H         1 <0>         0.1345
     30 H6          4.1360   -4.2592   -0.0606 H         1 <0>         0.1564
     31 H7          4.5485    0.2591   -0.0399 H         1 <0>         0.3865
     32 H8          3.3937    2.2919   -0.0180 H         1 <0>         0.1364
     33 H9          2.0721    4.4064    0.0058 H         1 <0>         0.1681
     34 H10        -2.1899    4.3145    0.0440 H         1 <0>         0.1663
     35 H11        -2.1536    1.8555    0.0227 H         1 <0>         0.1632
@<TRIPOS>BOND
     1    1    2 1
     2    1   25 1
     3    1   26 1
     4    1   27 1
     5    2    3 1
     6    3    8 ar
     7    3    4 ar
     8    4    5 ar
     9    4   28 1
    10    5    6 ar
    11    5   29 1
    12    6    7 ar
    13    6   10 1
    14    7    8 ar
    15    7   30 1
    16    8    9 1
    17   10   11 2
    18   10   12 am
    19   12   13 1
    20   12   31 1
    21   13   14 2
    22   14   15 1
    23   14   32 1
    24   15   20 ar
    25   15   16 ar
    26   16   17 ar
    27   16   33 1
    28   17   18 ar
    29   17   22 1
    30   18   19 ar
    31   18   34 1
    32   19   20 ar
    33   19   35 1
    34   20   21 1
    35   22   23 2
    36   22   24 1
@<TRIPOS>MOLECULE
ZINC26523420
   48    50     0     0     0
SMALL
USER_CHARGES
(2R)-2-[(3-cyano-4-methyl-6,7-dihydro-5H-cyclopenta[e]pyridin-2-yl)sulfanyl]-N-(2-methyl-3-nitro-phenyl)propanamide
@<TRIPOS>ATOM
      1 C1          0.1817    2.2241   -0.0750 C.3       1 <0>        -0.1195
      2 C2         -0.6137    2.1080    1.1997 C.ar      1 <0>        -0.0540
      3 C3          0.0172    1.7435    2.3822 C.ar      1 <0>         0.1559
      4 C4         -0.7192    1.6376    3.5545 C.ar      1 <0>        -0.0888
      5 C5         -2.0764    1.8948    3.5415 C.ar      1 <0>        -0.0984
      6 C6         -2.7015    2.2570    2.3627 C.ar      1 <0>        -0.0714
      7 C7         -1.9697    2.3693    1.1945 C.ar      1 <0>        -0.0269
      8 N1         -2.6416    2.7642   -0.0638 N.pl3     1 <0>         0.0314
      9 O1         -3.8040    3.1277   -0.0454 O.2       1 <0>        -0.1618
     10 O2         -2.0322    2.7256   -1.1177 O.3       1 <0>        -0.1558
     11 N2          1.3920    1.4831    2.3919 N.am      1 <0>        -0.6724
     12 C8          2.0763    1.5183    3.5525 C.2       1 <0>         0.5321
     13 O3          1.5210    1.8643    4.5737 O.2       1 <0>        -0.5008
     14 C9          3.5315    1.1277    3.5813 C.3       1 <0>        -0.1097
     15 H1          3.6350    0.4318    2.7357 H         1 <0>         0.1273
     16 C10         4.3916    2.3366    3.2072 C.3       1 <0>        -0.1499
     17 S1          3.9724    0.5650    5.2441 S.3       1 <0>         0.0515
     18 C11         5.6313    0.0431    4.9607 C.ar      1 <0>         0.1543
     19 C12         6.3892   -0.4856    6.0212 C.ar      1 <0>        -0.0684
     20 C13         7.7030   -0.8916    5.7671 C.ar      1 <0>         0.0381
     21 C14         8.2018   -0.7557    4.4817 C.ar      1 <0>        -0.1586
     22 C15         7.3980   -0.2270    3.4874 C.ar      1 <0>         0.1662
     23 N3          6.1554    0.1455    3.7511 N.ar      1 <0>        -0.4854
     24 C16         8.1680   -0.1839    2.1827 C.3       1 <0>        -0.0781
     25 C17         9.6513   -0.3290    2.5826 C.3       1 <0>        -0.1156
     26 C18         9.5614   -1.1018    3.9156 C.3       1 <0>        -0.0736
     27 C19         8.5579   -1.4650    6.8678 C.3       1 <0>        -0.1317
     28 C20         5.8275   -0.6052    7.3330 C.1       1 <0>         0.2496
     29 N4          5.3820   -0.7001    8.3737 N.1       1 <0>        -0.3862
     30 H2          1.2350    1.9795    0.1265 H         1 <0>         0.0637
     31 H3          0.1110    3.2525   -0.4589 H         1 <0>         0.0928
     32 H4         -0.2204    1.5250   -0.8231 H         1 <0>         0.0994
     33 H5         -0.2316    1.3541    4.4755 H         1 <0>         0.1722
     34 H6         -2.6497    1.8126    4.4530 H         1 <0>         0.1524
     35 H7         -3.7627    2.4576    2.3551 H         1 <0>         0.1549
     36 H8          1.9142    1.2497    1.4523 H         1 <0>         0.4421
     37 H9          5.4538    2.0514    3.2282 H         1 <0>         0.0978
     38 H10         4.2156    3.1488    3.9278 H         1 <0>         0.0697
     39 H11         4.1237    2.6786    2.1966 H         1 <0>         0.0702
     40 H12         7.8409   -1.0117    1.5364 H         1 <0>         0.0973
     41 H13         7.9779    0.7739    1.6762 H         1 <0>         0.0914
     42 H14        10.1890   -0.8857    1.8010 H         1 <0>         0.0885
     43 H15        10.0998    0.6690    2.6963 H         1 <0>         0.0802
     44 H16        10.3437   -0.7848    4.6209 H         1 <0>         0.0844
     45 H17         9.6275   -2.1886    3.7588 H         1 <0>         0.0898
     46 H18         9.5497   -1.7203    6.4664 H         1 <0>         0.0849
     47 H19         8.0802   -2.3711    7.2688 H         1 <0>         0.0844
     48 H20         8.6677   -0.7221    7.6715 H         1 <0>         0.0843
@<TRIPOS>BOND
     1    1    2 1
     2    1   30 1
     3    1   31 1
     4    1   32 1
     5    2    7 ar
     6    2    3 ar
     7    3    4 ar
     8    3   11 1
     9    4    5 ar
    10    4   33 1
    11    5    6 ar
    12    5   34 1
    13    6    7 ar
    14    6   35 1
    15    7    8 1
    16    8    9 2
    17    8   10 1
    18   11   12 am
    19   11   36 1
    20   12   13 2
    21   12   14 1
    22   14   15 1
    23   14   16 1
    24   14   17 1
    25   16   37 1
    26   16   38 1
    27   16   39 1
    28   17   18 1
    29   18   23 ar
    30   18   19 ar
    31   19   20 ar
    32   19   28 1
    33   20   21 ar
    34   20   27 1
    35   21   26 1
    36   21   22 ar
    37   22   23 ar
    38   22   24 1
    39   24   25 1
    40   24   40 1
    41   24   41 1
    42   25   26 1
    43   25   42 1
    44   25   43 1
    45   26   44 1
    46   26   45 1
    47   27   46 1
    48   27   47 1
    49   27   48 1
    50   28   29 3
@<TRIPOS>MOLECULE
ZINC22525054
   42    46     0     0     0
SMALL
USER_CHARGES

@<TRIPOS>ATOM
      1 C1         -0.2078    1.1231    0.6712 C.ar      1 <0>        -0.1249
      2 C2          0.9302    1.8785    0.4554 C.ar      1 <0>        -0.0951
      3 C3          2.1526    1.2569    0.2911 C.ar      1 <0>        -0.1157
      4 C4          2.2381   -0.1280    0.3429 C.ar      1 <0>         0.1545
      5 C5          1.0937   -0.8837    0.5598 C.ar      1 <0>        -0.1388
      6 C6         -0.1258   -0.2563    0.7233 C.ar      1 <0>        -0.0918
      7 N1          3.4769   -0.7617    0.1762 N.pl3     1 <0>        -0.3141
      8 C7          3.6970   -2.1018    0.1989 C.2       1 <0>         0.0922
      9 C8          5.0317   -2.3011   -0.0019 C.2       1 <0>        -0.1819
     10 C9          5.6340   -1.0362   -0.1504 C.2       1 <0>         0.0852
     11 N2          4.7031   -0.1242   -0.0491 N.2       1 <0>        -0.2770
     12 C10         5.7241   -3.6132   -0.0536 C.2       1 <0>        -0.1244
     13 C11         6.6242   -4.1002    0.8761 C.2       1 <0>         0.1535
     14 O1          7.0150   -5.3194    0.4571 O.3       1 <0>        -0.0184
     15 N3          6.3476   -5.6024   -0.7581 N.2       1 <0>        -0.2548
     16 C12         5.5793   -4.5945   -1.0578 C.2       1 <0>         0.0272
     17 C13         4.6910   -4.4918   -2.2708 C.3       1 <0>         0.5543
     18 F1          5.4056   -3.9119   -3.3244 F         1 <0>        -0.1570
     19 F2          4.2634   -5.7702   -2.6452 F         1 <0>        -0.1591
     20 F3          3.5793   -3.6980   -1.9688 F         1 <0>        -0.1563
     21 C14         7.0739   -3.4119    2.0997 C.ar      1 <0>        -0.0694
     22 C15         6.1405   -2.8180    2.9540 C.ar      1 <0>        -0.0389
     23 C16         6.5630   -2.1758    4.0972 C.ar      1 <0>        -0.1097
     24 C17         7.9159   -2.1135    4.4081 C.ar      1 <0>         0.0807
     25 C18         8.8542   -2.7013    3.5645 C.ar      1 <0>         0.0025
     26 C19         8.4381   -3.3554    2.4140 C.ar      1 <0>         0.1681
     27 O2          9.3515   -3.9348    1.5913 O.3       1 <0>        -0.4752
     28 O3         10.0998   -2.5012    4.0894 O.3       1 <0>        -0.2946
     29 C20         9.9463   -1.4357    5.0456 C.3       1 <0>         0.2099
     30 O4          8.5724   -1.5456    5.4617 O.3       1 <0>        -0.3002
     31 H1         -1.1618    1.6116    0.8039 H         1 <0>         0.1305
     32 H2          0.8629    2.9557    0.4149 H         1 <0>         0.1337
     33 H3          3.0409    1.8474    0.1222 H         1 <0>         0.1389
     34 H4          1.1570   -1.9611    0.6002 H         1 <0>         0.1303
     35 H5         -1.0163   -0.8436    0.8920 H         1 <0>         0.1347
     36 H6          2.9519   -2.8691    0.3489 H         1 <0>         0.1827
     37 H7          6.6842   -0.8519   -0.3224 H         1 <0>         0.1904
     38 H8          5.0876   -2.8622    2.7176 H         1 <0>         0.1497
     39 H9          5.8390   -1.7180    4.7550 H         1 <0>         0.1500
     40 H10         9.6886   -3.3467    0.9017 H         1 <0>         0.3981
     41 H11        10.6160   -1.5820    5.8930 H         1 <0>         0.1389
     42 H12        10.1278   -0.4695    4.5749 H         1 <0>         0.0913
@<TRIPOS>BOND
     1    1    6 ar
     2    1    2 ar
     3    1   31 1
     4    2    3 ar
     5    2   32 1
     6    3    4 ar
     7    3   33 1
     8    4    5 ar
     9    4    7 1
    10    5    6 ar
    11    5   34 1
    12    6   35 1
    13    7   11 1
    14    7    8 1
    15    8    9 2
    16    8   36 1
    17    9   10 1
    18    9   12 1
    19   10   11 2
    20   10   37 1
    21   12   16 1
    22   12   13 2
    23   13   14 1
    24   13   21 1
    25   14   15 1
    26   15   16 2
    27   16   17 1
    28   17   18 1
    29   17   19 1
    30   17   20 1
    31   21   26 ar
    32   21   22 ar
    33   22   23 ar
    34   22   38 1
    35   23   24 ar
    36   23   39 1
    37   24   30 1
    38   24   25 ar
    39   25   26 ar
    40   25   28 1
    41   26   27 1
    42   27   40 1
    43   28   29 1
    44   29   30 1
    45   29   41 1
    46   29   42 1
@<TRIPOS>MOLECULE
ZINC66853239
   47    49     0     0     0
SMALL
USER_CHARGES

@<TRIPOS>ATOM
      1 C1         -0.0466    1.5036    0.0019 C.3       1 <0>        -0.1863
      2 C2         -0.0166   -0.0261    0.0001 C.3       1 <0>         0.0430
      3 H1         -1.0366   -0.4102    0.0127 H         1 <0>         0.0981
      4 C3          0.7009   -0.5218   -1.2583 C.3       1 <0>         0.0703
      5 O1          2.0597   -0.0765   -1.2329 O.3       1 <0>        -0.3725
      6 C4          2.7911   -0.5247   -0.0885 C.3       1 <0>         0.1412
      7 H2          2.8263   -1.6141   -0.0828 H         1 <0>         0.0776
      8 C5          2.0949   -0.0290    1.1817 C.3       1 <0>         0.0206
      9 N1          0.7028   -0.5044    1.1896 N.3       1 <0>        -0.5130
     10 C6          0.0130   -0.0974    2.4211 C.3       1 <0>         0.0360
     11 C7          0.6314   -0.8035    3.6001 C.2       1 <0>         0.5184
     12 O2          1.5558   -1.5703    3.4311 O.2       1 <0>        -0.4836
     13 N2          0.1573   -0.5829    4.8422 N.am      1 <0>        -0.6696
     14 C8          0.6524   -1.3232    5.9221 C.ar      1 <0>         0.2196
     15 C9          1.2067   -2.5784    5.7094 C.ar      1 <0>        -0.1229
     16 C10         1.6948   -3.3063    6.7768 C.ar      1 <0>        -0.0232
     17 C11         1.6322   -2.7868    8.0569 C.ar      1 <0>        -0.0618
     18 C12         1.0810   -1.5374    8.2731 C.ar      1 <0>        -0.0210
     19 C13         0.5954   -0.8013    7.2087 C.ar      1 <0>        -0.0797
     20 Cl1        -0.0900    0.7705    7.4795 Cl        1 <0>        -0.0317
     21 N3          2.1560   -3.5704    9.1983 N.pl3     1 <0>         0.0362
     22 O3          2.6379   -4.6632    9.0108 O.2       1 <0>        -0.1510
     23 O4          2.1019   -3.1176   10.3180 O.3       1 <0>        -0.1548
     24 C14         4.1937    0.0239   -0.1413 C.ar      1 <0>        -0.0860
     25 C15         4.4125    1.3230   -0.5600 C.ar      1 <0>        -0.0929
     26 C16         5.6991    1.8262   -0.6084 C.ar      1 <0>        -0.1238
     27 C17         6.7669    1.0303   -0.2378 C.ar      1 <0>        -0.1150
     28 C18         6.5481   -0.2685    0.1817 C.ar      1 <0>        -0.1205
     29 C19         5.2611   -0.7703    0.2342 C.ar      1 <0>        -0.1042
     30 H3          0.9737    1.8871   -0.0107 H         1 <0>         0.0665
     31 H4         -0.5787    1.8577   -0.8810 H         1 <0>         0.0692
     32 H5         -0.5561    1.8559    0.8988 H         1 <0>         0.0555
     33 H6          0.6753   -1.6111   -1.2866 H         1 <0>         0.0630
     34 H7          0.2034   -0.1223   -2.1421 H         1 <0>         0.1037
     35 H8          2.6164   -0.4158    2.0572 H         1 <0>         0.1027
     36 H9          2.1072    1.0608    1.2019 H         1 <0>         0.0479
     37 H10         0.1088    0.9805    2.5519 H         1 <0>         0.0771
     38 H11        -1.0419   -0.3625    2.3512 H         1 <0>         0.1173
     39 H12        -0.5271    0.0890    4.9879 H         1 <0>         0.4200
     40 H13         1.2558   -2.9852    4.7101 H         1 <0>         0.1785
     41 H14         2.1257   -4.2828    6.6116 H         1 <0>         0.1650
     42 H15         1.0332   -1.1347    9.2741 H         1 <0>         0.1683
     43 H16         3.5783    1.9448   -0.8495 H         1 <0>         0.1234
     44 H17         5.8701    2.8409   -0.9361 H         1 <0>         0.1229
     45 H18         7.7722    1.4232   -0.2763 H         1 <0>         0.1229
     46 H19         7.3823   -0.8904    0.4710 H         1 <0>         0.1248
     47 H20         5.0897   -1.7839    0.5655 H         1 <0>         0.1241
@<TRIPOS>BOND
     1    1    2 1
     2    1   30 1
     3    1   31 1
     4    1   32 1
     5    2    3 1
     6    2    9 1
     7    2    4 1
     8    4    5 1
     9    4   33 1
    10    4   34 1
    11    5    6 1
    12    6    7 1
    13    6    8 1
    14    6   24 1
    15    8    9 1
    16    8   35 1
    17    8   36 1
    18    9   10 1
    19   10   11 1
    20   10   37 1
    21   10   38 1
    22   11   12 2
    23   11   13 am
    24   13   14 1
    25   13   39 1
    26   14   19 ar
    27   14   15 ar
    28   15   16 ar
    29   15   40 1
    30   16   17 ar
    31   16   41 1
    32   17   18 ar
    33   17   21 1
    34   18   19 ar
    35   18   42 1
    36   19   20 1
    37   21   22 2
    38   21   23 1
    39   24   29 ar
    40   24   25 ar
    41   25   26 ar
    42   25   43 1
    43   26   27 ar
    44   26   44 1
    45   27   28 ar
    46   27   45 1
    47   28   29 ar
    48   28   46 1
    49   29   47 1
@<TRIPOS>MOLECULE
ZINC10339501
   44    47     0     0     0
SMALL
USER_CHARGES
(3-ethoxyphenyl)-methyl-BLAHone
@<TRIPOS>ATOM
      1 C1         -1.1705    7.3515    0.0532 C.3       1 <0>        -0.1531
      2 C2         -1.3504    5.8321    0.0467 C.3       1 <0>         0.0542
      3 O1         -0.0685    5.2008    0.0311 O.3       1 <0>        -0.3134
      4 C3         -0.0501    3.8419    0.0236 C.ar      1 <0>         0.1325
      5 C4         -1.2415    3.1307    0.0307 C.ar      1 <0>        -0.1995
      6 C5         -1.2201    1.7497    0.0174 C.ar      1 <0>        -0.0813
      7 C6         -0.0126    1.0758    0.0080 C.ar      1 <0>        -0.1361
      8 C7          1.1758    1.7821    0.0004 C.ar      1 <0>        -0.0573
      9 C8          1.1598    3.1636    0.0084 C.ar      1 <0>        -0.1121
     10 C9          2.4899    1.0445   -0.0161 C.3       1 <0>         0.2752
     11 H1          3.3084    1.7642   -0.0201 H         1 <0>         0.1133
     12 C10         2.5925    0.1745    1.2173 C.2       1 <0>        -0.3115
     13 C11         2.4688   -1.1688    1.1611 C.2       1 <0>         0.2530
     14 C12         2.5803   -2.0114    2.4097 C.3       1 <0>        -0.0946
     15 C13         2.0777   -1.2149    3.6153 C.3       1 <0>        -0.0842
     16 H2          1.0290   -0.9543    3.4721 H         1 <0>         0.0870
     17 C14         2.9167    0.0621    3.7328 C.3       1 <0>        -0.1512
     18 C15         2.8234    0.8271    2.4421 C.2       1 <0>         0.4095
     19 O2          2.9500    2.0356    2.4569 O.2       1 <0>        -0.4611
     20 C16         2.2318   -2.0519    4.8868 C.3       1 <0>        -0.1489
     21 N1          2.2433   -1.8264   -0.0245 N.pl3     1 <0>        -0.6093
     22 C17         2.4441   -1.1290   -1.2045 C.2       1 <0>         0.4883
     23 N2          2.5660    0.2194   -1.2147 N.pl3     1 <0>        -0.3826
     24 N3          2.7653    0.5900   -2.5459 N.2       1 <0>        -0.2901
     25 C18         2.7470   -0.5146   -3.2506 C.2       1 <0>         0.2167
     26 N4          2.5505   -1.5540   -2.4333 N.2       1 <0>        -0.5455
     27 H3         -2.1483    7.8331    0.0651 H         1 <0>         0.0793
     28 H4         -0.6091    7.6472    0.9394 H         1 <0>         0.0674
     29 H5         -0.6261    7.6567   -0.8404 H         1 <0>         0.0672
     30 H6         -1.9119    5.5365   -0.8395 H         1 <0>         0.0618
     31 H7         -1.8949    5.5269    0.9403 H         1 <0>         0.0621
     32 H8         -2.1848    3.6566    0.0422 H         1 <0>         0.1295
     33 H9         -2.1472    1.1957    0.0184 H         1 <0>         0.1260
     34 H10         0.0021   -0.0041    0.0020 H         1 <0>         0.1111
     35 H11         2.0884    3.7150    0.0032 H         1 <0>         0.1342
     36 H12         1.9783   -2.9127    2.2940 H         1 <0>         0.0985
     37 H13         3.6222   -2.2897    2.5677 H         1 <0>         0.1105
     38 H14         2.5676    0.6223    4.4840 H         1 <0>         0.0915
     39 H15         3.9561   -0.2008    3.9289 H         1 <0>         0.1044
     40 H16         3.2827   -2.3023    5.0318 H         1 <0>         0.0623
     41 H17         1.8727   -1.4811    5.7432 H         1 <0>         0.0659
     42 H18         1.6497   -2.9685    4.7912 H         1 <0>         0.0635
     43 H19         1.9524   -2.7517   -0.0348 H         1 <0>         0.4398
     44 H20         2.8711   -0.5756   -4.3218 H         1 <0>         0.2272
@<TRIPOS>BOND
     1    1    2 1
     2    1   27 1
     3    1   28 1
     4    1   29 1
     5    2    3 1
     6    2   30 1
     7    2   31 1
     8    3    4 1
     9    4    9 ar
    10    4    5 ar
    11    5    6 ar
    12    5   32 1
    13    6    7 ar
    14    6   33 1
    15    7    8 ar
    16    7   34 1
    17    8    9 ar
    18    8   10 1
    19    9   35 1
    20   10   11 1
    21   10   23 1
    22   10   12 1
    23   12   18 1
    24   12   13 2
    25   13   14 1
    26   13   21 1
    27   14   15 1
    28   14   36 1
    29   14   37 1
    30   15   16 1
    31   15   17 1
    32   15   20 1
    33   17   18 1
    34   17   38 1
    35   17   39 1
    36   18   19 2
    37   20   40 1
    38   20   41 1
    39   20   42 1
    40   21   22 1
    41   21   43 1
    42   22   26 2
    43   22   23 1
    44   23   24 1
    45   24   25 2
    46   25   26 1
    47   25   44 1
@<TRIPOS>MOLECULE
ZINC35163706
   32    34     0     0     0
SMALL
USER_CHARGES

@<TRIPOS>ATOM
      1 C1          0.1985    1.4220    0.1291 C.3       1 <0>         0.0363
      2 O1          0.1607   -0.0060    0.0898 O.3       1 <0>        -0.3492
      3 C2          0.7146   -0.6042   -0.9860 C.2       1 <0>         0.5605
      4 O2          1.2159    0.0702   -1.8665 O.2       1 <0>        -0.5117
      5 C3          0.7124   -2.0148   -1.0901 C.2       1 <0>        -0.3299
      6 C4          1.2302   -2.8230   -2.1030 C.2       1 <0>         0.2391
      7 C5          1.0715   -4.1820   -1.9157 C.2       1 <0>        -0.2302
      8 C6          0.4455   -4.6236   -0.8000 C.2       1 <0>        -0.1891
      9 S1          0.0543   -3.2241    0.0422 S.3       1 <0>         0.2646
     10 N1          1.8638   -2.2948   -3.2269 N.am      1 <0>        -0.6287
     11 C7          2.4866   -3.1144   -4.0969 C.2       1 <0>         0.6104
     12 O3          2.4172   -4.3199   -3.9529 O.2       1 <0>        -0.5056
     13 C8          3.2529   -2.5490   -5.2239 C.2       1 <0>        -0.0051
     14 C9          3.9232   -3.2635   -6.1758 C.2       1 <0>        -0.0040
     15 N2          4.4916   -2.3635   -7.0255 N.pl3     1 <0>        -0.3637
     16 C10         5.2645   -2.5145   -8.1427 C.2       1 <0>         0.0522
     17 C11         5.7105   -1.4375   -8.8205 C.2       1 <0>        -0.1308
     18 C12         5.3857   -0.1406   -8.3862 C.2       1 <0>        -0.0968
     19 C13         4.6182    0.0263   -7.2772 C.2       1 <0>        -0.0758
     20 C14         4.1579   -1.1099   -6.5769 C.2       1 <0>         0.2325
     21 N3          3.4077   -1.2400   -5.4957 N.2       1 <0>        -0.4614
     22 H1          1.2349    1.7588    0.1079 H         1 <0>         0.0624
     23 H2         -0.3317    1.8234   -0.7345 H         1 <0>         0.0625
     24 H3         -0.2790    1.7730    1.0439 H         1 <0>         0.1044
     25 H4          1.4415   -4.8826   -2.6496 H         1 <0>         0.1912
     26 H5          0.2463   -5.6457   -0.5136 H         1 <0>         0.1978
     27 H6          1.8563   -1.3375   -3.3828 H         1 <0>         0.4374
     28 H7          3.9901   -4.3394   -6.2420 H         1 <0>         0.2000
     29 H8          5.5207   -3.5061   -8.4857 H         1 <0>         0.1695
     30 H9          6.3206   -1.5720   -9.7014 H         1 <0>         0.1566
     31 H10         5.7451    0.7197   -8.9314 H         1 <0>         0.1481
     32 H11         4.3632    1.0183   -6.9347 H         1 <0>         0.1565
@<TRIPOS>BOND
     1    1    2 1
     2    1   22 1
     3    1   23 1
     4    1   24 1
     5    2    3 1
     6    3    4 2
     7    3    5 1
     8    5    9 1
     9    5    6 2
    10    6    7 1
    11    6   10 1
    12    7    8 2
    13    7   25 1
    14    8    9 1
    15    8   26 1
    16   10   11 am
    17   10   27 1
    18   11   12 2
    19   11   13 1
    20   13   21 1
    21   13   14 2
    22   14   15 1
    23   14   28 1
    24   15   20 1
    25   15   16 1
    26   16   17 2
    27   16   29 1
    28   17   18 1
    29   17   30 1
    30   18   19 2
    31   18   31 1
    32   19   20 1
    33   19   32 1
    34   20   21 2
@<TRIPOS>MOLECULE
ZINC39854353
   40    42     0     0     0
SMALL
USER_CHARGES

@<TRIPOS>ATOM
      1 C1         -0.0123    1.5298    0.0064 C.3       1 <0>        -0.1507
      2 C2          0.0008   -0.0002    0.0047 C.3       1 <0>        -0.0313
      3 C3         -1.4038   -0.6030    0.3642 C.3       1 <0>        -0.0870
      4 H1         -2.2208   -0.3692   -0.3183 H         1 <0>         0.1209
      5 C4         -1.0401   -2.1131    0.5066 C.3       1 <0>        -0.1246
      6 C5          0.3893   -2.1122    1.0959 C.3       1 <0>        -0.1001
      7 C6          0.7474   -0.5852    1.2549 C.3       1 <0>        -0.1595
      8 C7         -0.1487   -0.0739    2.3918 C.2       1 <0>         0.3846
      9 O1          0.1946    0.2648    3.4989 O.2       1 <0>        -0.4289
     10 C8         -1.5615   -0.0844    1.8266 C.3       1 <0>        -0.1740
     11 C9          2.2159   -0.2639    1.3618 C.2       1 <0>         0.5564
     12 O2          2.7524    0.4116    0.5091 O.2       1 <0>        -0.5011
     13 N1          2.9329   -0.7270    2.4047 N.am      1 <0>        -0.6650
     14 C10         4.3145   -0.5114    2.4547 C.ar      1 <0>         0.1524
     15 C11         4.8528    0.6703    1.9617 C.ar      1 <0>        -0.0711
     16 C12         6.2167    0.8800    2.0125 C.ar      1 <0>        -0.0956
     17 C13         7.0466   -0.0851    2.5534 C.ar      1 <0>        -0.0685
     18 C14         6.5140   -1.2627    3.0445 C.ar      1 <0>        -0.0288
     19 C15         5.1499   -1.4759    3.0023 C.ar      1 <0>        -0.0852
     20 N2          7.4059   -2.2933    3.6217 N.pl3     1 <0>         0.0333
     21 O3          8.5994   -2.1052    3.6635 O.2       1 <0>        -0.1516
     22 O4          6.9409   -3.3233    4.0513 O.3       1 <0>        -0.1571
     23 C16         0.5506   -0.5611   -1.3082 C.3       1 <0>        -0.1426
     24 H2          1.0121    1.9019   -0.0051 H         1 <0>         0.0726
     25 H3         -0.5395    1.8895   -0.8772 H         1 <0>         0.0693
     26 H4         -0.5189    1.8878    0.9026 H         1 <0>         0.0532
     27 H5         -1.7321   -2.6087    1.1875 H         1 <0>         0.0777
     28 H6         -1.0495   -2.6004   -0.4683 H         1 <0>         0.0824
     29 H7          0.3996   -2.6027    2.0692 H         1 <0>         0.0757
     30 H8          1.0821   -2.6048    0.4136 H         1 <0>         0.0881
     31 H9         -1.9783    0.9228    1.8289 H         1 <0>         0.1081
     32 H10        -2.1952   -0.7592    2.4020 H         1 <0>         0.1073
     33 H11         2.4912   -1.2099    3.1207 H         1 <0>         0.4184
     34 H12         4.2053    1.4242    1.5389 H         1 <0>         0.1576
     35 H13         6.6359    1.7985    1.6290 H         1 <0>         0.1537
     36 H14         8.1130    0.0813    2.5919 H         1 <0>         0.1567
     37 H15         4.7339   -2.3938    3.3908 H         1 <0>         0.1564
     38 H16         1.5763   -0.2198   -1.4480 H         1 <0>         0.0713
     39 H17         0.5317   -1.6504   -1.2741 H         1 <0>         0.0619
     40 H18        -0.0645   -0.2129   -2.1380 H         1 <0>         0.0650
@<TRIPOS>BOND
     1    1    2 1
     2    1   24 1
     3    1   25 1
     4    1   26 1
     5    2    7 1
     6    2    3 1
     7    2   23 1
     8    3    4 1
     9    3   10 1
    10    3    5 1
    11    5    6 1
    12    5   27 1
    13    5   28 1
    14    6    7 1
    15    6   29 1
    16    6   30 1
    17    7    8 1
    18    7   11 1
    19    8    9 2
    20    8   10 1
    21   10   31 1
    22   10   32 1
    23   11   12 2
    24   11   13 am
    25   13   14 1
    26   13   33 1
    27   14   19 ar
    28   14   15 ar
    29   15   16 ar
    30   15   34 1
    31   16   17 ar
    32   16   35 1
    33   17   18 ar
    34   17   36 1
    35   18   19 ar
    36   18   20 1
    37   19   37 1
    38   20   21 2
    39   20   22 1
    40   23   38 1
    41   23   39 1
    42   23   40 1
@<TRIPOS>MOLECULE
ZINC51292218
   49    51     0     0     0
SMALL
USER_CHARGES

@<TRIPOS>ATOM
      1 C1         -0.0187    1.5258    0.0104 C.3       1 <0>        -0.1528
      2 C2          0.0021   -0.0041    0.0020 C.3       1 <0>        -0.1216
      3 C3         -1.4333   -0.5336    0.0129 C.3       1 <0>        -0.1313
      4 C4         -1.4126   -2.0635    0.0045 C.3       1 <0>         0.1377
      5 N1         -2.7870   -2.5706    0.0149 N.am      1 <0>        -0.7419
      6 C5         -3.0152   -3.8988    0.0099 C.2       1 <0>         0.7278
      7 O1         -2.0805   -4.6763   -0.0032 O.2       1 <0>        -0.5846
      8 N2         -4.2797   -4.3654    0.0195 N.am      1 <0>        -0.6219
      9 C6         -5.5004   -3.5388    0.0291 C.3       1 <0>         0.0986
     10 C7         -6.5904   -4.4487    0.6485 C.3       1 <0>        -0.1279
     11 C8         -6.2119   -5.8333    0.0596 C.3       1 <0>        -0.1226
     12 C9         -4.6701   -5.7828    0.0156 C.3       1 <0>         0.2491
     13 H1         -4.2594   -6.2828    0.8928 H         1 <0>         0.0892
     14 C10        -4.1684   -6.4491   -1.2395 C.2       1 <0>         0.1691
     15 N3         -4.2155   -5.9594   -2.4502 N.2       1 <0>        -0.2808
     16 N4         -3.6898   -6.7948   -3.2771 N.2       1 <0>        -0.2943
     17 C11        -3.2822   -7.8496   -2.6307 C.2       1 <0>         0.1819
     18 N5         -3.5799   -7.6628   -1.3236 N.pl3     1 <0>        -0.4575
     19 C12        -3.3275   -8.6015   -0.2300 C.3       1 <0>         0.1037
     20 C13        -2.1133   -9.4684   -0.5745 C.3       1 <0>        -0.1402
     21 C14        -2.5681  -10.7136   -1.3343 C.3       1 <0>        -0.1245
     22 C15        -3.2452  -10.3227   -2.6445 C.3       1 <0>        -0.1233
     23 C16        -2.5942   -9.0607   -3.2054 C.3       1 <0>        -0.0370
     24 H2          1.0039    1.9031    0.0027 H         1 <0>         0.0567
     25 H3         -0.5459    1.8868   -0.8726 H         1 <0>         0.0549
     26 H4         -0.5289    1.8773    0.9072 H         1 <0>         0.0544
     27 H5          0.5123   -0.3556   -0.8948 H         1 <0>         0.0657
     28 H6          0.5293   -0.3651    0.8851 H         1 <0>         0.0653
     29 H7         -1.9435   -0.1821    0.9097 H         1 <0>         0.0689
     30 H8         -1.9605   -0.1726   -0.8702 H         1 <0>         0.0697
     31 H9         -0.9024   -2.4150   -0.8923 H         1 <0>         0.0655
     32 H10        -0.8854   -2.4246    0.8875 H         1 <0>         0.0657
     33 H11        -3.5327   -1.9503    0.0253 H         1 <0>         0.3963
     34 H12        -5.3526   -2.6512    0.6443 H         1 <0>         0.0770
     35 H13        -5.7749   -3.2558   -0.9870 H         1 <0>         0.0759
     36 H14        -6.5223   -4.4549    1.7364 H         1 <0>         0.0812
     37 H15        -7.5850   -4.1441    0.3226 H         1 <0>         0.0921
     38 H16        -6.5553   -6.6366    0.7116 H         1 <0>         0.0904
     39 H17        -6.6192   -5.9496   -0.9447 H         1 <0>         0.0872
     40 H18        -3.1298   -8.0466    0.6871 H         1 <0>         0.0946
     41 H19        -4.2007   -9.2385   -0.0888 H         1 <0>         0.0900
     42 H20        -1.4237   -8.8964   -1.1953 H         1 <0>         0.0819
     43 H21        -1.6094   -9.7682    0.3444 H         1 <0>         0.0890
     44 H22        -1.7024  -11.3398   -1.5497 H         1 <0>         0.0744
     45 H23        -3.2721  -11.2735   -0.7187 H         1 <0>         0.0702
     46 H24        -3.1404  -11.1350   -3.3637 H         1 <0>         0.0816
     47 H25        -4.3032  -10.1326   -2.4637 H         1 <0>         0.0642
     48 H26        -2.6845   -9.0500   -4.2916 H         1 <0>         0.1004
     49 H27        -1.5408   -9.0485   -2.9257 H         1 <0>         0.0917
@<TRIPOS>BOND
     1    1    2 1
     2    1   24 1
     3    1   25 1
     4    1   26 1
     5    2    3 1
     6    2   27 1
     7    2   28 1
     8    3    4 1
     9    3   29 1
    10    3   30 1
    11    4    5 1
    12    4   31 1
    13    4   32 1
    14    5    6 am
    15    5   33 1
    16    6    7 2
    17    6    8 am
    18    8   12 1
    19    8    9 1
    20    9   10 1
    21    9   34 1
    22    9   35 1
    23   10   11 1
    24   10   36 1
    25   10   37 1
    26   11   12 1
    27   11   38 1
    28   11   39 1
    29   12   13 1
    30   12   14 1
    31   14   18 1
    32   14   15 2
    33   15   16 1
    34   16   17 2
    35   17   23 1
    36   17   18 1
    37   18   19 1
    38   19   20 1
    39   19   40 1
    40   19   41 1
    41   20   21 1
    42   20   42 1
    43   20   43 1
    44   21   22 1
    45   21   44 1
    46   21   45 1
    47   22   23 1
    48   22   46 1
    49   22   47 1
    50   23   48 1
    51   23   49 1
@<TRIPOS>MOLECULE
ZINC65551850
   44    46     0     0     0
SMALL
USER_CHARGES

@<TRIPOS>ATOM
      1 C1         -0.0050    1.5268    0.0181 C.3       1 <0>        -0.1416
      2 C2          0.0204   -0.0030    0.0130 C.3       1 <0>         0.1737
      3 C3          0.7695   -0.5048    1.2491 C.3       1 <0>        -0.1615
      4 C4         -1.4132   -0.5369    0.0337 C.3       1 <0>        -0.1633
      5 N1          0.7003   -0.4760   -1.1955 N.pl3     1 <0>        -0.4756
      6 C5          0.9085   -1.8060   -1.5457 C.ar      1 <0>         0.0884
      7 C6          0.5796   -3.0088   -0.9363 C.ar      1 <0>        -0.0999
      8 C7          0.9272   -4.2019   -1.5374 C.ar      1 <0>        -0.1037
      9 C8          1.6033   -4.2042   -2.7459 C.ar      1 <0>        -0.1037
     10 C9          1.9350   -3.0134   -3.3604 C.ar      1 <0>        -0.0981
     11 C10         1.5898   -1.8084   -2.7646 C.ar      1 <0>         0.0750
     12 N2          1.7812   -0.4797   -3.1294 N.pl3     1 <0>        -0.6080
     13 C11         1.2306    0.3092   -2.1696 C.2       1 <0>         0.6535
     14 N3          1.2163    1.6395   -2.1802 N.2       1 <0>        -0.6594
     15 C12         1.8625    2.3037   -3.1334 C.2       1 <0>         0.4885
     16 O1          2.3859    1.6979   -4.0485 O.2       1 <0>        -0.5817
     17 C13         1.9462    3.8074   -3.0799 C.3       1 <0>         0.0973
     18 N4          2.7042    4.2957   -4.2344 N.am      1 <0>        -0.4828
     19 C14         4.0514    4.4363   -4.1420 C.2       1 <0>         0.1411
     20 C15         4.7732    4.8861   -5.1949 C.2       1 <0>        -0.2328
     21 C16         4.1292    5.2115   -6.3970 C.2       1 <0>        -0.0154
     22 C17         2.7757    5.0692   -6.4881 C.2       1 <0>        -0.2425
     23 C18         2.0576    4.5948   -5.3771 C.2       1 <0>         0.5187
     24 O2          0.8466    4.4584   -5.4464 O.2       1 <0>        -0.5518
     25 H1          1.0164    1.9072    0.0034 H         1 <0>         0.0794
     26 H2         -0.5386    1.8843   -0.8625 H         1 <0>         0.0821
     27 H3         -0.5108    1.8788    0.9173 H         1 <0>         0.0666
     28 H4          0.2637   -0.1528    2.1482 H         1 <0>         0.0827
     29 H5          0.7876   -1.5946    1.2454 H         1 <0>         0.0638
     30 H6          1.7909   -0.1244    1.2343 H         1 <0>         0.0649
     31 H7         -1.9469   -0.1794   -0.8469 H         1 <0>         0.0660
     32 H8         -1.3951   -1.6268    0.0300 H         1 <0>         0.0639
     33 H9         -1.9190   -0.1850    0.9328 H         1 <0>         0.0828
     34 H10         0.0530   -3.0113    0.0066 H         1 <0>         0.1349
     35 H11         0.6711   -5.1376   -1.0628 H         1 <0>         0.1383
     36 H12         1.8724   -5.1417   -3.2096 H         1 <0>         0.1380
     37 H13         2.4626   -3.0195   -4.3027 H         1 <0>         0.1340
     38 H14         0.9409    4.2282   -3.1009 H         1 <0>         0.1313
     39 H15         2.4479    4.1108   -2.1610 H         1 <0>         0.1223
     40 H16         4.5524    4.1870   -3.2183 H         1 <0>         0.1580
     41 H17         5.8443    4.9944   -5.1091 H         1 <0>         0.1451
     42 H18         4.6985    5.5713   -7.2413 H         1 <0>         0.1348
     43 H19         2.2618    5.3147   -7.4057 H         1 <0>         0.1477
     44 H20         2.2279   -0.1696   -3.9327 H         1 <0>         0.4493
@<TRIPOS>BOND
     1    1    2 1
     2    1   25 1
     3    1   26 1
     4    1   27 1
     5    2    3 1
     6    2    4 1
     7    2    5 1
     8    3   28 1
     9    3   29 1
    10    3   30 1
    11    4   31 1
    12    4   32 1
    13    4   33 1
    14    5   13 1
    15    5    6 1
    16    6   11 ar
    17    6    7 ar
    18    7    8 ar
    19    7   34 1
    20    8    9 ar
    21    8   35 1
    22    9   10 ar
    23    9   36 1
    24   10   11 ar
    25   10   37 1
    26   11   12 1
    27   12   13 1
    28   12   44 1
    29   13   14 2
    30   14   15 1
    31   15   16 2
    32   15   17 1
    33   17   18 1
    34   17   38 1
    35   17   39 1
    36   18   23 am
    37   18   19 1
    38   19   20 2
    39   19   40 1
    40   20   21 1
    41   20   41 1
    42   21   22 2
    43   21   42 1
    44   22   23 1
    45   22   43 1
    46   23   24 2
@<TRIPOS>MOLECULE
ZINC30824893
   39    42     0     0     0
SMALL
USER_CHARGES
N-(1,3-benzodioxol-5-ylmethyl)-1-[5-(3-fluorophenyl)-1,3,4-oxadiazol-2-yl]methanamine
@<TRIPOS>ATOM
      1 C1         10.4551   -6.3158   -1.6698 C.ar      1 <0>        -0.0887
      2 C2          9.8718   -5.2565   -1.0050 C.ar      1 <0>        -0.0850
      3 C3         10.1627   -3.9475   -1.3913 C.ar      1 <0>        -0.0283
      4 C4         11.0518   -3.7173   -2.4419 C.ar      1 <0>        -0.0945
      5 C5         11.6337   -4.7859   -3.0965 C.ar      1 <0>         0.1077
      6 C6         11.3356   -6.0832   -2.7105 C.ar      1 <0>        -0.1097
      7 F1         12.4948   -4.5659   -4.1141 F         1 <0>        -0.1222
      8 C7          9.5362   -2.8090   -0.6862 C.2       1 <0>         0.2717
      9 N1          9.7251   -1.5358   -0.9420 N.2       1 <0>        -0.2668
     10 N2          9.0182   -0.8307   -0.1305 N.2       1 <0>        -0.2168
     11 C8          8.3557   -1.6195    0.6688 C.2       1 <0>         0.0707
     12 O1          8.6686   -2.8853    0.3428 O.3       1 <0>        -0.2092
     13 C9          7.4144   -1.1896    1.7643 C.3       1 <0>         0.1184
     14 N3          6.0537   -1.0737    1.2232 N.4       1 <0>        -0.5444
     15 C10         5.1066   -0.6554    2.2653 C.3       1 <0>         0.0568
     16 C11         3.7246   -0.5476    1.6742 C.ar      1 <0>        -0.1618
     17 C12         2.8855   -1.6464    1.6768 C.ar      1 <0>        -0.0764
     18 C13         1.6171   -1.5526    1.1353 C.ar      1 <0>        -0.1023
     19 C14         1.1834   -0.3557    0.5885 C.ar      1 <0>         0.0753
     20 C15         2.0284    0.7513    0.5864 C.ar      1 <0>         0.0395
     21 C16         3.2983    0.6500    1.1309 C.ar      1 <0>        -0.0788
     22 O2          1.3764    1.7966   -0.0014 O.3       1 <0>        -0.3024
     23 C17        -0.0175    1.4357    0.0099 C.3       1 <0>         0.2062
     24 O3          0.0021   -0.0041    0.0020 O.3       1 <0>        -0.2942
     25 H1         10.2269   -7.3290   -1.3736 H         1 <0>         0.1516
     26 H2          9.1879   -5.4404   -0.1896 H         1 <0>         0.1408
     27 H3         11.2841   -2.7064   -2.7428 H         1 <0>         0.1567
     28 H4         11.7931   -6.9158   -3.2242 H         1 <0>         0.1528
     29 H5          7.4256   -1.9368    2.5715 H         1 <0>         0.1636
     30 H6          7.7351   -0.2154    2.1620 H         1 <0>         0.1759
     31 H7          6.0425   -0.3265    0.4160 H         1 <0>         0.4591
     32 H8          5.1017   -1.3988    3.0760 H         1 <0>         0.1453
     33 H9          5.4111    0.3225    2.6664 H         1 <0>         0.1446
     34 H10         3.2220   -2.5802    2.1025 H         1 <0>         0.1481
     35 H11         0.9638   -2.4126    1.1387 H         1 <0>         0.1500
     36 H12         3.9556    1.5069    1.1309 H         1 <0>         0.1462
     37 H13        -0.4938    1.8410    0.9148 H         1 <0>         0.0994
     38 H14        -0.5109    1.8506   -0.8814 H         1 <0>         0.1469
     39 H15         5.7330   -2.0479    0.8256 H         1 <0>         0.4543
@<TRIPOS>BOND
     1    1    6 ar
     2    1    2 ar
     3    1   25 1
     4    2    3 ar
     5    2   26 1
     6    3    4 ar
     7    3    8 1
     8    4    5 ar
     9    4   27 1
    10    5    6 ar
    11    5    7 1
    12    6   28 1
    13    8   12 1
    14    8    9 2
    15    9   10 1
    16   10   11 2
    17   11   12 1
    18   11   13 1
    19   13   14 1
    20   13   29 1
    21   13   30 1
    22   14   15 1
    23   14   31 1
    24   14   39 1
    25   15   16 1
    26   15   32 1
    27   15   33 1
    28   16   21 ar
    29   16   17 ar
    30   17   18 ar
    31   17   34 1
    32   18   19 ar
    33   18   35 1
    34   19   24 1
    35   19   20 ar
    36   20   21 ar
    37   20   22 1
    38   21   36 1
    39   22   23 1
    40   23   24 1
    41   23   37 1
    42   23   38 1
@<TRIPOS>MOLECULE
ZINC40011893
   41    43     0     0     0
SMALL
USER_CHARGES

@<TRIPOS>ATOM
      1 C1          3.2745    3.2366    2.8822 C.3       1 <0>        -0.1074
      2 C2          2.8808    2.3021    1.7365 C.3       1 <0>         0.1329
      3 H1          2.0284    2.7136    1.1960 H         1 <0>         0.1543
      4 N1          4.0134    2.1221    0.8246 N.2       1 <0>        -0.4285
      5 C3          4.3363    0.8612    0.7919 C.2       1 <0>         0.1184
      6 C4          5.3900    0.1435    0.0463 C.2       1 <0>        -0.0217
      7 C5          5.5125   -1.1868    0.1936 C.2       1 <0>        -0.1307
      8 C6          4.6093   -1.9220    1.0860 C.2       1 <0>         0.2362
      9 C7          3.5986   -1.2511    1.8052 C.2       1 <0>        -0.1970
     10 C8          3.4407    0.0925    1.6844 C.2       1 <0>         0.1505
     11 N2          2.5473    0.9727    2.2643 N.2       1 <0>        -0.4638
     12 N3          4.7459   -3.2388    1.2190 N.am      1 <0>        -0.6693
     13 C9          5.6239   -3.9031    0.4519 C.2       1 <0>         0.6177
     14 O1          5.5548   -3.8231   -0.7634 O.2       1 <0>        -0.4186
     15 C10         6.6684   -4.7269    1.0757 C.2       1 <0>        -0.0451
     16 C11         7.6238   -5.4467    0.4159 C.2       1 <0>        -0.1106
     17 C12         8.4045   -6.0765    1.3976 C.2       1 <0>        -0.1498
     18 C13         7.8980   -5.7183    2.5987 C.2       1 <0>        -0.0665
     19 O2          6.8555   -4.9002    2.4000 O.3       1 <0>        -0.1469
     20 C14         8.4230   -6.1611    3.9401 C.3       1 <0>         0.0847
     21 N4          9.4404   -5.2094    4.4062 N.4       1 <0>        -0.3893
     22 C15         8.8146   -3.9022    4.6461 C.3       1 <0>        -0.0521
     23 C16        10.0373   -5.7030    5.6544 C.3       1 <0>        -0.0481
     24 H2          4.1348    2.8235    3.4088 H         1 <0>         0.0598
     25 H3          3.5310    4.2167    2.4799 H         1 <0>         0.0810
     26 H4          2.4381    3.3355    3.5741 H         1 <0>         0.0825
     27 H5          6.0557    0.6826   -0.6114 H         1 <0>         0.1548
     28 H6          6.2806   -1.7182   -0.3488 H         1 <0>         0.1456
     29 H7          2.9442   -1.8106    2.4573 H         1 <0>         0.1409
     30 H8          4.2108   -3.7186    1.8704 H         1 <0>         0.4298
     31 H9          7.7533   -5.5174   -0.6540 H         1 <0>         0.1795
     32 H10         9.2505   -6.7255    1.2257 H         1 <0>         0.1749
     33 H11         7.6031   -6.1968    4.6574 H         1 <0>         0.1498
     34 H12         8.8679   -7.1519    3.8471 H         1 <0>         0.1636
     35 H13         8.0384   -4.0047    5.4044 H         1 <0>         0.1264
     36 H14         9.5695   -3.1960    4.9920 H         1 <0>         0.1296
     37 H15         8.3717   -3.5359    3.7200 H         1 <0>         0.1194
     38 H16        10.5016   -6.6730    5.4764 H         1 <0>         0.1278
     39 H17        10.7921   -4.9969    6.0003 H         1 <0>         0.1297
     40 H18         9.2610   -5.8055    6.4127 H         1 <0>         0.1258
     41 H19        10.1589   -5.1146    3.7043 H         1 <0>         0.4298
@<TRIPOS>BOND
     1    1    2 1
     2    1   24 1
     3    1   25 1
     4    1   26 1
     5    2    3 1
     6    2   11 1
     7    2    4 1
     8    4    5 2
     9    5   10 1
    10    5    6 1
    11    6    7 2
    12    6   27 1
    13    7    8 1
    14    7   28 1
    15    8    9 1
    16    8   12 2
    17    9   10 2
    18    9   29 1
    19   10   11 1
    20   12   13 am
    21   12   30 1
    22   13   14 2
    23   13   15 1
    24   15   19 1
    25   15   16 2
    26   16   17 1
    27   16   31 1
    28   17   18 2
    29   17   32 1
    30   18   19 1
    31   18   20 1
    32   20   21 1
    33   20   33 1
    34   20   34 1
    35   21   22 1
    36   21   23 1
    37   21   41 1
    38   22   35 1
    39   22   36 1
    40   22   37 1
    41   23   38 1
    42   23   39 1
    43   23   40 1
@<TRIPOS>MOLECULE
ZINC59267209
   42    45     0     0     0
SMALL
USER_CHARGES

@<TRIPOS>ATOM
      1 C1         -0.0173    1.4248    0.0099 C.3       1 <0>         0.0224
      2 O1          0.0021   -0.0041    0.0020 O.3       1 <0>        -0.3134
      3 C2         -1.2013   -0.6380    0.0101 C.ar      1 <0>         0.0756
      4 C3         -2.3718    0.1006    0.0195 C.ar      1 <0>        -0.1087
      5 C4         -3.5922   -0.5498    0.0260 C.ar      1 <0>        -0.0507
      6 C5         -3.6446   -1.9287    0.0154 C.ar      1 <0>        -0.0354
      7 C6         -2.4777   -2.6813    0.0021 C.ar      1 <0>        -0.1200
      8 C7         -1.2547   -2.0316    0.0031 C.ar      1 <0>         0.2345
      9 N1         -0.0698   -2.7632    0.0214 N.pl3     1 <0>        -0.7195
     10 C8         -0.0293   -4.2087    0.0504 C.3       1 <0>         0.1932
     11 H1          0.8124   -4.5438   -0.5558 H         1 <0>         0.1226
     12 C9         -1.2882   -4.8771   -0.4625 C.3       1 <0>        -0.0918
     13 H2         -1.2409   -5.0247   -1.5414 H         1 <0>         0.1214
     14 C10        -2.5748   -4.1688   -0.0314 C.3       1 <0>        -0.0167
     15 H3         -3.3597   -4.4468   -0.7349 H         1 <0>         0.1120
     16 C11        -2.9404   -4.7459    1.3120 C.2       1 <0>        -0.1430
     17 C12        -2.3230   -5.8858    1.4983 C.2       1 <0>        -0.1829
     18 C13        -1.4522   -6.2306    0.2850 C.3       1 <0>        -0.1089
     19 C14         0.1998   -4.6528    1.4722 C.ar      1 <0>         0.0299
     20 C15        -0.4337   -4.0128    2.5264 C.ar      1 <0>        -0.1034
     21 C16        -0.1993   -4.4479    3.8171 C.ar      1 <0>         0.1277
     22 N2          0.6157   -5.4579    4.0508 N.ar      1 <0>        -0.4434
     23 C17         1.2351   -6.0898    3.0731 C.ar      1 <0>         0.1325
     24 C18         1.0447   -5.7147    1.7566 C.ar      1 <0>        -0.1256
     25 N3         -4.8464    0.2358    0.0448 N.pl3     1 <0>         0.0351
     26 O2         -4.8029    1.4440    0.0545 O.2       1 <0>        -0.1568
     27 O3         -5.9145   -0.3307    0.0505 O.3       1 <0>        -0.1541
     28 H4          1.0053    1.8021    0.0021 H         1 <0>         0.1122
     29 H5         -0.5445    1.7859   -0.8732 H         1 <0>         0.0651
     30 H6         -0.5275    1.7763    0.9067 H         1 <0>         0.0634
     31 H7         -2.3323    1.1799    0.0222 H         1 <0>         0.1636
     32 H8         -4.6026   -2.4274    0.0177 H         1 <0>         0.1577
     33 H9          0.7707   -2.2790    0.0139 H         1 <0>         0.4197
     34 H10        -3.6147   -4.2859    2.0191 H         1 <0>         0.1389
     35 H11        -2.4215   -6.4982    2.3824 H         1 <0>         0.1306
     36 H12        -1.9487   -6.9614   -0.3534 H         1 <0>         0.1008
     37 H13        -0.4826   -6.6053    0.6130 H         1 <0>         0.0786
     38 H14        -1.1017   -3.1846    2.3414 H         1 <0>         0.1764
     39 H15        -0.6889   -3.9547    4.6438 H         1 <0>         0.2084
     40 H16         1.8956   -6.9126    3.3034 H         1 <0>         0.2115
     41 H17         1.5510   -6.2393    0.9598 H         1 <0>         0.1879
     42 H18         0.7637   -5.7433    4.9660 H         1 <0>         0.4526
@<TRIPOS>BOND
     1    1    2 1
     2    1   28 1
     3    1   29 1
     4    1   30 1
     5    2    3 1
     6    3    8 ar
     7    3    4 ar
     8    4    5 ar
     9    4   31 1
    10    5    6 ar
    11    5   25 1
    12    6    7 ar
    13    6   32 1
    14    7   14 1
    15    7    8 ar
    16    8    9 1
    17    9   10 1
    18    9   33 1
    19   10   11 1
    20   10   12 1
    21   10   19 1
    22   12   13 1
    23   12   18 1
    24   12   14 1
    25   14   15 1
    26   14   16 1
    27   16   17 2
    28   16   34 1
    29   17   18 1
    30   17   35 1
    31   18   36 1
    32   18   37 1
    33   19   24 ar
    34   19   20 ar
    35   20   21 ar
    36   20   38 1
    37   21   22 ar
    38   21   39 1
    39   22   23 ar
    40   22   42 1
    41   23   24 ar
    42   23   40 1
    43   24   41 1
    44   25   26 2
    45   25   27 1
@<TRIPOS>MOLECULE
ZINC63856510
   43    46     0     0     0
SMALL
USER_CHARGES

@<TRIPOS>ATOM
      1 C1         -0.0635    1.4856   -0.0106 C.3       1 <0>        -0.1288
      2 C2         -0.0320   -0.0211   -0.0153 C.ar      1 <0>        -0.1074
      3 C3         -0.0204   -0.6996   -1.2417 C.ar      1 <0>         0.0680
      4 C4          0.0075   -2.0463   -1.3298 C.ar      1 <0>        -0.2057
      5 C5          0.0261   -2.8434   -0.1521 C.ar      1 <0>         0.3430
      6 N1          0.0526   -4.1424    0.0224 N.pl3     1 <0>        -0.5620
      7 C6          0.0607   -4.4208    1.4629 C.3       1 <0>         0.0714
      8 H1         -0.8212   -4.9988    1.7388 H         1 <0>         0.1972
      9 C7          0.0346   -3.0718    2.1462 C.2       1 <0>         0.0297
     10 C8          0.0143   -2.1506    1.1561 C.ar      1 <0>        -0.1391
     11 C9         -0.0103   -0.6830    1.1639 C.ar      1 <0>        -0.0253
     12 C10         1.3119   -5.1715    1.8398 C.2       1 <0>         0.5232
     13 O1          2.2703   -5.1649    1.0965 O.2       1 <0>        -0.4736
     14 N2          1.3659   -5.8504    3.0029 N.am      1 <0>        -0.6433
     15 C11         2.4826   -6.6420    3.3007 C.ar      1 <0>         0.1398
     16 C12         3.2667   -7.1520    2.2765 C.ar      1 <0>        -0.1193
     17 C13         4.3683   -7.9323    2.5726 C.ar      1 <0>        -0.0840
     18 C14         4.6921   -8.2076    3.8887 C.ar      1 <0>        -0.1093
     19 C15         3.9161   -7.7040    4.9154 C.ar      1 <0>        -0.0832
     20 C16         2.8124   -6.9148    4.6276 C.ar      1 <0>         0.1392
     21 N3          2.0276   -6.3984    5.6671 N.am      1 <0>        -0.5997
     22 C17         0.8601   -7.0568    6.2860 C.3       1 <0>         0.0614
     23 C18         0.6611   -6.2254    7.5756 C.3       1 <0>         0.0377
     24 O2          1.2745   -4.9706    7.2214 O.3       1 <0>        -0.3199
     25 C19         2.2065   -5.2155    6.2846 C.2       1 <0>         0.6416
     26 O3          3.1120   -4.4494    6.0204 O.2       1 <0>        -0.4938
     27 H2          0.9564    1.8703   -0.0163 H         1 <0>         0.0895
     28 H3         -0.5908    1.8408   -0.8959 H         1 <0>         0.0835
     29 H4         -0.5787    1.8355    0.8840 H         1 <0>         0.0833
     30 H5         -0.0347   -0.1212   -2.1537 H         1 <0>         0.1655
     31 H6          0.0154   -2.5211   -2.2998 H         1 <0>         0.1664
     32 H7          0.0321   -2.8825    3.2094 H         1 <0>         0.2150
     33 H8         -0.0150   -0.1399    2.0974 H         1 <0>         0.1668
     34 H9          0.6315   -5.7907    3.6338 H         1 <0>         0.4160
     35 H10         3.0163   -6.9395    1.2477 H         1 <0>         0.1489
     36 H11         4.9777   -8.3286    1.7740 H         1 <0>         0.1396
     37 H12         5.5537   -8.8183    4.1147 H         1 <0>         0.1406
     38 H13         4.1717   -7.9213    5.9420 H         1 <0>         0.1383
     39 H14        -0.0142   -6.9847    5.6391 H         1 <0>         0.0896
     40 H15         1.0826   -8.0967    6.5252 H         1 <0>         0.1089
     41 H16        -0.3987   -6.0928    7.7934 H         1 <0>         0.1288
     42 H17         1.1757   -6.6860    8.4189 H         1 <0>         0.1017
     43 H18         0.0646   -4.8082   -0.6829 H         1 <0>         0.4599
@<TRIPOS>BOND
     1    1    2 1
     2    1   27 1
     3    1   28 1
     4    1   29 1
     5    2   11 ar
     6    2    3 ar
     7    3    4 ar
     8    3   30 1
     9    4    5 ar
    10    4   31 1
    11    5   10 ar
    12    5    6 2
    13    6    7 1
    14    6   43 1
    15    7    8 1
    16    7    9 1
    17    7   12 1
    18    9   10 2
    19    9   32 1
    20   10   11 ar
    21   11   33 1
    22   12   13 2
    23   12   14 am
    24   14   15 1
    25   14   34 1
    26   15   20 ar
    27   15   16 ar
    28   16   17 ar
    29   16   35 1
    30   17   18 ar
    31   17   36 1
    32   18   19 ar
    33   18   37 1
    34   19   20 ar
    35   19   38 1
    36   20   21 1
    37   21   25 am
    38   21   22 1
    39   22   23 1
    40   22   39 1
    41   22   40 1
    42   23   24 1
    43   23   41 1
    44   23   42 1
    45   24   25 1
    46   25   26 2
@<TRIPOS>MOLECULE
ZINC66665741
   46    48     0     0     0
SMALL
USER_CHARGES

@<TRIPOS>ATOM
      1 C1         -1.4005   -0.3768    0.0104 C.3       1 <0>        -0.1890
      2 C2          0.0653    0.0613    0.0342 C.3       1 <0>         0.1262
      3 H1          0.5665   -0.2979   -0.8646 H         1 <0>         0.1878
      4 C3          0.1392    1.5657    0.0834 C.2       1 <0>         0.2276
      5 N1          0.5397    2.3401   -0.8843 N.2       1 <0>        -0.4747
      6 C4          0.4774    3.6275   -0.4997 C.2       1 <0>         0.3162
      7 N2          0.0307    3.6757    0.7310 N.2       1 <0>        -0.2915
      8 O1         -0.2014    2.3323    1.1274 O.3       1 <0>        -0.1069
      9 C5          0.8529    4.7985   -1.3308 C.ar      1 <0>        -0.0654
     10 C6          1.3121    4.6130   -2.6331 C.ar      1 <0>        -0.0606
     11 C7          1.6600    5.7055   -3.4016 C.ar      1 <0>        -0.1231
     12 C8          1.5539    6.9825   -2.8809 C.ar      1 <0>        -0.0761
     13 C9          1.0987    7.1723   -1.5886 C.ar      1 <0>        -0.1206
     14 C10         0.7422    6.0874   -0.8135 C.ar      1 <0>        -0.0697
     15 N3          0.7250   -0.5004    1.2205 N.4       1 <0>        -0.3885
     16 C11        -0.0526   -0.1629    2.4229 C.3       1 <0>        -0.0420
     17 C12         0.7684   -0.5306    3.6603 C.3       1 <0>         0.0866
     18 N4          1.2470   -1.9063    3.5486 N.am      1 <0>        -0.7200
     19 C13         1.2785   -2.5664    2.3853 C.2       1 <0>         0.5155
     20 O2          1.7116   -3.6991    2.3706 O.2       1 <0>        -0.4729
     21 C14         0.7987   -1.9615    1.0965 C.3       1 <0>         0.0122
     22 H2         -0.1899   -2.3543    0.8590 H         1 <0>         0.1757
     23 C15         1.7700   -2.3268   -0.0278 C.3       1 <0>        -0.1014
     24 C16         3.1909   -1.9284    0.3763 C.3       1 <0>        -0.1753
     25 C17         1.7152   -3.8350   -0.2792 C.3       1 <0>        -0.1714
     26 H3         -1.9017   -0.0176    0.9092 H         1 <0>         0.0978
     27 H4         -1.8900    0.0400   -0.8698 H         1 <0>         0.1234
     28 H5         -1.4539   -1.4649   -0.0252 H         1 <0>         0.1080
     29 H6          1.3960    3.6163   -3.0404 H         1 <0>         0.1385
     30 H7          2.0161    5.5629   -4.4112 H         1 <0>         0.1389
     31 H8          1.8279    7.8345   -3.4854 H         1 <0>         0.1373
     32 H9          1.0181    8.1716   -1.1869 H         1 <0>         0.1391
     33 H10         0.3823    6.2370    0.1937 H         1 <0>         0.1335
     34 H11        -0.2672    0.9058    2.4312 H         1 <0>         0.1610
     35 H12        -0.9865   -0.7251    2.4238 H         1 <0>         0.1523
     36 H13         1.6208    0.1437    3.7428 H         1 <0>         0.1011
     37 H14         0.1455   -0.4351    4.5497 H         1 <0>         0.1354
     38 H15         1.5545   -2.3590    4.3495 H         1 <0>         0.4293
     39 H16         1.4888   -1.7963   -0.9375 H         1 <0>         0.1037
     40 H17         3.4399   -2.3902    1.3318 H         1 <0>         0.0764
     41 H18         3.8936   -2.2671   -0.3850 H         1 <0>         0.0946
     42 H19         3.2515   -0.8442    0.4701 H         1 <0>         0.0497
     43 H20         2.4605   -4.1060   -1.0270 H         1 <0>         0.0792
     44 H21         1.9228   -4.3660    0.6498 H         1 <0>         0.1057
     45 H22         0.7232   -4.1074   -0.6396 H         1 <0>         0.0658
     46 H23         1.6563   -0.1206    1.3008 H         1 <0>         0.4306
@<TRIPOS>BOND
     1    1    2 1
     2    1   26 1
     3    1   27 1
     4    1   28 1
     5    2    3 1
     6    2    4 1
     7    2   15 1
     8    4    8 1
     9    4    5 2
    10    5    6 1
    11    6    7 2
    12    6    9 1
    13    7    8 1
    14    9   14 ar
    15    9   10 ar
    16   10   11 ar
    17   10   29 1
    18   11   12 ar
    19   11   30 1
    20   12   13 ar
    21   12   31 1
    22   13   14 ar
    23   13   32 1
    24   14   33 1
    25   15   21 1
    26   15   16 1
    27   15   46 1
    28   16   17 1
    29   16   34 1
    30   16   35 1
    31   17   18 1
    32   17   36 1
    33   17   37 1
    34   18   19 am
    35   18   38 1
    36   19   20 2
    37   19   21 1
    38   21   22 1
    39   21   23 1
    40   23   24 1
    41   23   25 1
    42   23   39 1
    43   24   40 1
    44   24   41 1
    45   24   42 1
    46   25   43 1
    47   25   44 1
    48   25   45 1
@<TRIPOS>MOLECULE
ZINC06320960
   68    72     0     0     0
SMALL
USER_CHARGES
3-[(S)-(1-tert-butyltetrazol-5-yl)-[4-(4-fluorophenyl)-3,6-dihydro-2H-pyridin-1-yl]methyl]-6,7-dimethyl-1H-quinolin-2-one
@<TRIPOS>ATOM
      1 C1          2.6369    3.5745   -0.9876 C.3       1 <0>        -0.1245
      2 C2          1.3133    2.8662   -0.8555 C.ar      1 <0>        -0.1069
      3 C3          0.1691    3.5946   -0.6910 C.ar      1 <0>        -0.0402
      4 C4         -1.0594    2.9375   -0.5688 C.ar      1 <0>        -0.1586
      5 C5         -2.3047    3.6870   -0.3920 C.2       1 <0>         0.0713
      6 C6         -3.4679    2.9968   -0.2959 C.2       1 <0>        -0.2825
      7 C7         -3.4641    1.5864   -0.3495 C.2       1 <0>         0.5428
      8 O1         -4.5198    0.9853   -0.2510 O.2       1 <0>        -0.5188
      9 N1         -2.3252    0.8893   -0.5069 N.am      1 <0>        -0.6163
     10 H1         -2.3586   -0.0796   -0.5400 H         1 <0>         0.4279
     11 C8         -1.1107    1.5316   -0.6217 C.ar      1 <0>         0.2035
     12 C9          0.0677    0.8112   -0.7845 C.ar      1 <0>        -0.1667
     13 C10         1.2673    1.4798   -0.9024 C.ar      1 <0>         0.0042
     14 C11         2.5423    0.6973   -1.0846 C.3       1 <0>        -0.1365
     15 C12        -4.7681    3.7378   -0.1182 C.3       1 <0>         0.2086
     16 H2         -4.5670    4.8037   -0.0110 H         1 <0>         0.1627
     17 C13        -5.6444    3.5106   -1.3230 C.2       1 <0>         0.1111
     18 N2         -6.2165    2.3846   -1.6735 N.2       1 <0>        -0.2406
     19 N3         -6.8822    2.5966   -2.7560 N.2       1 <0>        -0.0591
     20 N4         -6.7432    3.8266   -3.1095 N.2       1 <0>        -0.0524
     21 N5         -5.9869    4.4232   -2.2512 N.pl3     1 <0>        -0.2728
     22 C14        -5.5780    5.8297   -2.2811 C.3       1 <0>         0.1510
     23 C15        -4.0506    5.9165   -2.2995 C.3       1 <0>        -0.1731
     24 C16        -6.1421    6.4982   -3.5364 C.3       1 <0>        -0.1558
     25 C17        -6.1144    6.5432   -1.0384 C.3       1 <0>        -0.1706
     26 C18        -6.6691    4.0272    1.3575 C.3       1 <0>        -0.0049
     27 C19        -7.4984    3.2860    2.4091 C.3       1 <0>        -0.1116
     28 C20        -6.6208    2.9007    3.5673 C.2       1 <0>        -0.0421
     29 C21        -5.3081    2.8934    3.4917 C.2       1 <0>        -0.1817
     30 C22        -4.5571    3.2747    2.2484 C.3       1 <0>         0.0434
     31 C23        -7.2595    2.5148    4.8431 C.ar      1 <0>        -0.0936
     32 C24        -8.0517    1.3681    4.9108 C.ar      1 <0>        -0.0690
     33 C25        -8.6408    1.0094    6.1052 C.ar      1 <0>        -0.1503
     34 C26        -8.4569    1.7920    7.2339 C.ar      1 <0>         0.1188
     35 C27        -7.6758    2.9349    7.1707 C.ar      1 <0>        -0.1516
     36 C28        -7.0771    3.2992    5.9828 C.ar      1 <0>        -0.0689
     37 F1         -9.0407    1.4394    8.4000 F         1 <0>        -0.1300
     38 H3          2.8336    3.7838   -2.0391 H         1 <0>         0.0789
     39 H4          2.6052    4.5108   -0.4305 H         1 <0>         0.0730
     40 H5          3.4293    2.9411   -0.5888 H         1 <0>         0.0786
     41 H6          0.2132    4.6731   -0.6551 H         1 <0>         0.1434
     42 H7         -2.2983    4.7662   -0.3516 H         1 <0>         0.1573
     43 H8          0.0424   -0.2679   -0.8230 H         1 <0>         0.1439
     44 H9          2.7279    0.5475   -2.1481 H         1 <0>         0.0882
     45 H10         3.3732    1.2490   -0.6449 H         1 <0>         0.0849
     46 H11         2.4480   -0.2707   -0.5923 H         1 <0>         0.0780
     47 H12        -3.6685    5.4082   -3.1848 H         1 <0>         0.0824
     48 H13        -3.7464    6.9629   -2.3217 H         1 <0>         0.1087
     49 H14        -3.6488    5.4402   -1.4052 H         1 <0>         0.0567
     50 H15        -7.2302    6.4364   -3.5232 H         1 <0>         0.0815
     51 H16        -5.8379    7.5447   -3.5586 H         1 <0>         0.0951
     52 H17        -5.7600    5.9899   -4.4216 H         1 <0>         0.0799
     53 H18        -5.6304    6.1382   -0.1497 H         1 <0>         0.0557
     54 H19        -5.9037    7.6100   -1.1127 H         1 <0>         0.1103
     55 H20        -7.1912    6.3895   -0.9677 H         1 <0>         0.0816
     56 H21        -6.3943    5.0120    1.7353 H         1 <0>         0.1388
     57 H22        -7.2479    4.1355    0.4402 H         1 <0>         0.1245
     58 H23        -8.3003    3.9346    2.7618 H         1 <0>         0.1300
     59 H24        -7.9273    2.3875    1.9655 H         1 <0>         0.1112
     60 H25        -4.7437    2.5995    4.3643 H         1 <0>         0.1562
     61 H26        -3.7380    2.5727    2.0919 H         1 <0>         0.1350
     62 H27        -4.1509    4.2793    2.3659 H         1 <0>         0.1418
     63 H28        -8.1994    0.7598    4.0306 H         1 <0>         0.1359
     64 H29        -9.2500    0.1192    6.1599 H         1 <0>         0.1438
     65 H30        -7.5353    3.5413    8.0533 H         1 <0>         0.1436
     66 H31        -6.4679    4.1897    5.9348 H         1 <0>         0.1365
     67 N6         -5.4609    3.2223    1.0845 N.4       1 <0>        -0.3921
     68 H32        -5.7379    2.2476    0.9185 H         1 <0>         0.4503
@<TRIPOS>BOND
     1    1    2 1
     2    1   38 1
     3    1   39 1
     4    1   40 1
     5    2   13 ar
     6    2    3 ar
     7    3    4 ar
     8    3   41 1
     9    4   11 ar
    10    4    5 1
    11    5    6 2
    12    5   42 1
    13    6    7 1
    14    6   15 1
    15    7    8 2
    16    7    9 am
    17    9   10 1
    18    9   11 1
    19   11   12 ar
    20   12   13 ar
    21   12   43 1
    22   13   14 1
    23   14   44 1
    24   14   45 1
    25   14   46 1
    26   15   16 1
    27   15   17 1
    28   15   67 1
    29   17   21 1
    30   17   18 2
    31   18   19 1
    32   19   20 2
    33   20   21 1
    34   21   22 1
    35   22   23 1
    36   22   24 1
    37   22   25 1
    38   23   47 1
    39   23   48 1
    40   23   49 1
    41   24   50 1
    42   24   51 1
    43   24   52 1
    44   25   53 1
    45   25   54 1
    46   25   55 1
    47   26   27 1
    48   26   56 1
    49   26   57 1
    50   26   67 1
    51   27   28 1
    52   27   58 1
    53   27   59 1
    54   28   29 2
    55   28   31 1
    56   29   30 1
    57   29   60 1
    58   30   61 1
    59   30   62 1
    60   30   67 1
    61   31   36 ar
    62   31   32 ar
    63   32   33 ar
    64   32   63 1
    65   33   34 ar
    66   33   64 1
    67   34   35 ar
    68   34   37 1
    69   35   36 ar
    70   35   65 1
    71   36   66 1
    72   67   68 1
@<TRIPOS>MOLECULE
ZINC27099798
   55    58     0     0     0
SMALL
USER_CHARGES
ethyl 4-[8-(3,6-dihydro-2H-pyridin-1-ylmethyl)-7-hydroxy-4-oxo-chromen-3-yl]oxybenzoate
@<TRIPOS>ATOM
      1 C1          6.7021    4.3138   -8.4543 C.3       1 <0>        -0.1556
      2 C2          7.4643    4.9241   -7.2764 C.3       1 <0>         0.0607
      3 O1          6.7338    4.6758   -6.0464 O.3       1 <0>        -0.3563
      4 C3          7.2739    5.1518   -4.9073 C.2       1 <0>         0.5100
      5 O2          8.3265    5.7578   -4.9410 O.2       1 <0>        -0.5008
      6 C4          6.5876    4.9373   -3.6200 C.ar      1 <0>        -0.1517
      7 C5          7.1463    5.4304   -2.4371 C.ar      1 <0>        -0.0115
      8 C6          6.5022    5.2284   -1.2374 C.ar      1 <0>        -0.1454
      9 C7          5.2971    4.5354   -1.2011 C.ar      1 <0>         0.1482
     10 C8          4.7407    4.0388   -2.3748 C.ar      1 <0>        -0.2082
     11 C9          5.3761    4.2407   -3.5792 C.ar      1 <0>        -0.0200
     12 O3          4.6654    4.3385   -0.0168 O.3       1 <0>        -0.2198
     13 C10         3.5501    3.5584   -0.0095 C.2       1 <0>        -0.0843
     14 C11         2.3265    4.1240   -0.0142 C.2       1 <0>         0.1145
     15 O4          1.1962    3.4055   -0.0065 O.3       1 <0>        -0.2180
     16 C12         1.1970    2.0572    0.0055 C.ar      1 <0>         0.2004
     17 C13         2.4182    1.3595    0.0114 C.ar      1 <0>        -0.2474
     18 C14         3.6679    2.1393    0.0036 C.2       1 <0>         0.4030
     19 O5          4.7580    1.5924    0.0077 O.2       1 <0>        -0.4196
     20 C15         2.4315   -0.0357    0.0253 C.ar      1 <0>         0.0430
     21 C16         1.2519   -0.7242    0.0333 C.ar      1 <0>        -0.1752
     22 C17         0.0374   -0.0415    0.0271 C.ar      1 <0>         0.2534
     23 C18         0.0073    1.3430    0.0133 C.ar      1 <0>        -0.2795
     24 C19        -1.3121    2.0709    0.0005 C.3       1 <0>         0.0516
     25 N1         -1.7467    2.3211    1.3813 N.4       1 <0>        -0.4014
     26 C20        -2.9031    3.2321    1.4136 C.3       1 <0>        -0.0035
     27 C21        -3.4957    3.2137    2.8250 C.3       1 <0>        -0.1248
     28 C22        -2.4008    3.4031    3.8372 C.2       1 <0>        -0.1330
     29 C23        -1.1437    3.2455    3.5539 C.2       1 <0>        -0.1913
     30 C24        -0.6481    2.8674    2.1880 C.3       1 <0>         0.0281
     31 O6         -1.1268   -0.7396    0.0352 O.3       1 <0>        -0.4748
     32 H1          7.2555    4.5019   -9.3861 H         1 <0>         0.0850
     33 H2          5.7041    4.7714   -8.5218 H         1 <0>         0.0673
     34 H3          6.5987    3.2293   -8.3018 H         1 <0>         0.0677
     35 H4          8.4623    4.4665   -7.2089 H         1 <0>         0.0746
     36 H5          7.5677    6.0086   -7.4289 H         1 <0>         0.0744
     37 H6          8.0818    5.9693   -2.4645 H         1 <0>         0.1529
     38 H7          6.9331    5.6090   -0.3232 H         1 <0>         0.1487
     39 H8          3.8067    3.4976   -2.3419 H         1 <0>         0.1259
     40 H9          4.9412    3.8583   -4.4908 H         1 <0>         0.1448
     41 H10         2.2546    5.2015   -0.0242 H         1 <0>         0.2183
     42 H11         3.3706   -0.5690    0.0294 H         1 <0>         0.1635
     43 H12         1.2607   -1.8041    0.0440 H         1 <0>         0.1593
     44 H13        -1.1970    3.0293   -0.5271 H         1 <0>         0.1492
     45 H14        -2.0648    1.4566   -0.5152 H         1 <0>         0.1405
     46 H15        -2.5751    4.2502    1.1571 H         1 <0>         0.1321
     47 H16        -3.6558    2.8951    0.6857 H         1 <0>         0.1385
     48 H17        -4.2294    4.0271    2.9252 H         1 <0>         0.1264
     49 H18        -3.9923    2.2482    3.0016 H         1 <0>         0.1074
     50 H19        -2.7036    3.6876    4.8557 H         1 <0>         0.1426
     51 H20        -0.3818    3.3898    4.3341 H         1 <0>         0.1512
     52 H21         0.1436    2.1105    2.2897 H         1 <0>         0.1330
     53 H22        -0.2396    3.7612    1.6938 H         1 <0>         0.1385
     54 H23        -2.0884   -0.2055    0.0304 H         1 <0>         0.4284
     55 H24        -2.0480    1.3559    1.8145 H         1 <0>         0.4392
@<TRIPOS>BOND
     1    1    2 1
     2    1   32 1
     3    1   33 1
     4    1   34 1
     5    2    3 1
     6    2   35 1
     7    2   36 1
     8    3    4 1
     9    4    5 2
    10    4    6 1
    11    6   11 ar
    12    6    7 ar
    13    7    8 ar
    14    7   37 1
    15    8    9 ar
    16    8   38 1
    17    9   10 ar
    18    9   12 1
    19   10   11 ar
    20   10   39 1
    21   11   40 1
    22   12   13 1
    23   13   18 1
    24   13   14 2
    25   14   15 1
    26   14   41 1
    27   15   16 1
    28   16   23 ar
    29   16   17 ar
    30   17   18 1
    31   17   20 ar
    32   18   19 2
    33   20   21 ar
    34   20   42 1
    35   21   22 ar
    36   21   43 1
    37   22   23 ar
    38   22   31 1
    39   23   24 1
    40   24   25 1
    41   24   44 1
    42   24   45 1
    43   25   30 1
    44   25   26 1
    45   25   55 1
    46   26   27 1
    47   26   46 1
    48   26   47 1
    49   27   28 1
    50   27   48 1
    51   27   49 1
    52   28   29 2
    53   28   50 1
    54   29   30 1
    55   29   51 1
    56   30   52 1
    57   30   53 1
    58   31   54 1
@<TRIPOS>MOLECULE
ZINC39514245
   51    53     0     0     0
SMALL
USER_CHARGES

@<TRIPOS>ATOM
      1 C1         -0.6397    0.4532   -0.0854 C.3       1 <0>        -0.1103
      2 C2         -0.4692   -1.0391    0.0373 C.ar      1 <0>        -0.0910
      3 C3         -0.4497   -1.8282   -1.0966 C.ar      1 <0>        -0.0716
      4 C4         -0.2932   -3.1982   -0.9845 C.ar      1 <0>        -0.0604
      5 C5         -0.1558   -3.7809    0.2632 C.ar      1 <0>        -0.0743
      6 C6         -0.1748   -2.9953    1.3992 C.ar      1 <0>        -0.1953
      7 C7         -0.3259   -1.6206    1.2884 C.ar      1 <0>         0.1246
      8 O1         -0.3388   -0.8453    2.4047 O.3       1 <0>        -0.2826
      9 C8         -0.2888   -1.5196    3.6636 C.3       1 <0>         0.0966
     10 H1          0.3503   -2.3986    3.5798 H         1 <0>         0.1187
     11 C9         -1.7000   -1.9518    4.0669 C.3       1 <0>        -0.1774
     12 C10         0.2701   -0.5899    4.7096 C.2       1 <0>         0.4726
     13 O2          0.5080    0.5612    4.4298 O.2       1 <0>        -0.4589
     14 O3          0.5037   -1.0406    5.9522 O.3       1 <0>        -0.3404
     15 C11         1.0340   -0.1046    6.8928 C.3       1 <0>         0.0758
     16 C12         1.2292   -0.7852    8.2232 C.2       1 <0>         0.1534
     17 C13         2.1339   -1.8190    8.3608 C.2       1 <0>        -0.2327
     18 C14         2.3000   -2.4334    9.5936 C.2       1 <0>         0.4633
     19 O4          3.1857   -3.4407    9.7143 O.3       1 <0>        -0.3613
     20 O5          1.5992   -2.0461   10.6647 O.3       1 <0>        -0.1974
     21 C15         0.7022   -1.0415   10.5860 C.2       1 <0>         0.1936
     22 C16         0.4959   -0.3762    9.3568 C.2       1 <0>        -0.1814
     23 C17        -0.4341    0.6751    9.2723 C.2       1 <0>        -0.0073
     24 C18        -1.1312    1.0543   10.3751 C.2       1 <0>        -0.1497
     25 C19        -0.9284    0.4016   11.6039 C.2       1 <0>         0.2708
     26 C20        -0.0168   -0.6508   11.7015 C.2       1 <0>        -0.1819
     27 N1         -1.6327    0.7913   12.7018 N.am      1 <0>        -0.6371
     28 C21        -1.2406    0.4167   13.9039 C.2       1 <0>         0.5119
     29 O6         -0.1845   -0.1743   14.0434 O.2       1 <0>        -0.5054
     30 C22        -2.0990    0.7197   15.1049 C.3       1 <0>        -0.1776
     31 Cl1        -0.2696   -4.1877   -2.4107 Cl        1 <0>        -0.0593
     32 H2          0.3387    0.9242   -0.1801 H         1 <0>         0.0753
     33 H3         -1.2386    0.6791   -0.9677 H         1 <0>         0.0724
     34 H4         -1.1427    0.8357    0.8027 H         1 <0>         0.0745
     35 H5         -0.5571   -1.3753   -2.0712 H         1 <0>         0.1452
     36 H6         -0.0341   -4.8506    0.3488 H         1 <0>         0.1399
     37 H7         -0.0679   -3.4505    2.3727 H         1 <0>         0.1383
     38 H8         -2.1043   -2.6242    3.3103 H         1 <0>         0.0882
     39 H9         -1.6619   -2.4662    5.0272 H         1 <0>         0.0875
     40 H10        -2.3392   -1.0728    4.1507 H         1 <0>         0.0791
     41 H11         1.9920    0.2698    6.5322 H         1 <0>         0.1244
     42 H12         0.3392    0.7272    7.0088 H         1 <0>         0.1101
     43 H13         2.7113   -2.1492    7.5099 H         1 <0>         0.2012
     44 H14        -0.5940    1.1809    8.3315 H         1 <0>         0.1676
     45 H15        -1.8450    1.8620   10.3076 H         1 <0>         0.1664
     46 H16         0.1362   -1.1496   12.6472 H         1 <0>         0.2036
     47 H17        -2.4230    1.3444   12.5999 H         1 <0>         0.4341
     48 H18        -2.7920   -0.1046   15.2734 H         1 <0>         0.1119
     49 H19        -1.4646    0.8461   15.9822 H         1 <0>         0.1106
     50 H20        -2.6611    1.6366   14.9277 H         1 <0>         0.0934
     51 H21         3.2395   -3.8126   10.6053 H         1 <0>         0.4483
@<TRIPOS>BOND
     1    1    2 1
     2    1   32 1
     3    1   33 1
     4    1   34 1
     5    2    7 ar
     6    2    3 ar
     7    3    4 ar
     8    3   35 1
     9    4    5 ar
    10    4   31 1
    11    5    6 ar
    12    5   36 1
    13    6    7 ar
    14    6   37 1
    15    7    8 1
    16    8    9 1
    17    9   10 1
    18    9   11 1
    19    9   12 1
    20   11   38 1
    21   11   39 1
    22   11   40 1
    23   12   13 2
    24   12   14 1
    25   14   15 1
    26   15   16 1
    27   15   41 1
    28   15   42 1
    29   16   22 2
    30   16   17 1
    31   17   18 2
    32   17   43 1
    33   18   19 1
    34   18   20 1
    35   19   51 1
    36   20   21 1
    37   21   26 2
    38   21   22 1
    39   22   23 1
    40   23   24 2
    41   23   44 1
    42   24   25 1
    43   24   45 1
    44   25   26 1
    45   25   27 2
    46   26   46 1
    47   27   28 am
    48   27   47 1
    49   28   29 2
    50   28   30 1
    51   30   48 1
    52   30   49 1
    53   30   50 1
@<TRIPOS>MOLECULE
ZINC41511249
   65    68     0     0     0
SMALL
USER_CHARGES

@<TRIPOS>ATOM
      1 C1          1.9171    0.9687   -0.0165 C.3       1 <0>        -0.1417
      2 C2          1.9334   -0.5380   -0.0365 C.ar      1 <0>         0.0796
      3 C3          1.8561   -1.2076   -1.2252 C.ar      1 <0>        -0.1812
      4 C4          1.8710   -2.5994   -1.2460 C.ar      1 <0>         0.2123
      5 C5          1.9639   -3.3211   -0.0668 C.ar      1 <0>        -0.2145
      6 C6          2.0432   -2.6559    1.1502 C.ar      1 <0>         0.1763
      7 C7          2.0331   -1.2516    1.1581 C.ar      1 <0>        -0.2662
      8 C8          2.1358   -0.8434    2.5710 C.2       1 <0>         0.4145
      9 O1          2.1563    0.2894    3.0207 O.2       1 <0>        -0.3949
     10 C9          2.2074   -2.1085    3.3160 C.2       1 <0>        -0.0500
     11 C10         2.3112   -2.2411    4.6634 C.2       1 <0>         0.0116
     12 C11         2.1970   -3.5676    5.2812 C.ar      1 <0>        -0.0188
     13 C12         2.7924   -3.8169    6.5241 C.ar      1 <0>        -0.1980
     14 C13         2.6822   -5.0667    7.1025 C.ar      1 <0>         0.1496
     15 C14         1.9800   -6.0782    6.4511 C.ar      1 <0>         0.0549
     16 C15         1.3863   -5.8343    5.2148 C.ar      1 <0>         0.1403
     17 C16         1.4873   -4.5857    4.6321 C.ar      1 <0>        -0.2053
     18 O2          0.7022   -6.8253    4.5827 O.3       1 <0>        -0.2954
     19 C17        -0.0066   -6.4683    3.3944 C.3       1 <0>         0.0216
     20 O3          1.8742   -7.3065    7.0233 O.3       1 <0>        -0.3130
     21 C18         0.7541   -7.5277    7.8825 C.3       1 <0>         0.0351
     22 O4          3.2604   -5.3099    8.3091 O.3       1 <0>        -0.2975
     23 C19         4.0622   -4.2665    8.8664 C.3       1 <0>         0.0211
     24 O5          2.1392   -3.1177    2.4159 O.3       1 <0>        -0.2122
     25 C20         1.9784   -4.8275   -0.1045 C.3       1 <0>         0.0448
     26 N1          3.3652   -5.3059   -0.0287 N.4       1 <0>        -0.3807
     27 C21         4.1089   -4.8341   -1.2029 C.3       1 <0>        -0.0138
     28 C22         5.5739   -5.2610   -1.0890 C.3       1 <0>        -0.1445
     29 C23         5.6504   -6.7887   -1.0144 C.3       1 <0>        -0.1376
     30 C24         4.8104   -7.2748    0.1702 C.3       1 <0>        -0.1411
     31 C25         3.3737   -6.7732    0.0096 C.3       1 <0>         0.0275
     32 H1          2.9549   -7.1629   -0.9182 H         1 <0>         0.1389
     33 C26         2.5303   -7.2568    1.1911 C.3       1 <0>        -0.1885
     34 O6          1.7933   -3.2553   -2.4319 O.3       1 <0>        -0.4812
     35 H2          2.9377    1.3441   -0.0900 H         1 <0>         0.0952
     36 H3          1.3329    1.3370   -0.8599 H         1 <0>         0.0874
     37 H4          1.4688    1.3149    0.9148 H         1 <0>         0.0896
     38 H5          1.7830   -0.6557   -2.1506 H         1 <0>         0.1582
     39 H6          2.4777   -1.3705    5.2804 H         1 <0>         0.1757
     40 H7          3.3373   -3.0333    7.0296 H         1 <0>         0.1460
     41 H8          1.0230   -4.3962    3.6757 H         1 <0>         0.1409
     42 H9         -0.4883   -7.3535    2.9789 H         1 <0>         0.1081
     43 H10        -0.7635   -5.7212    3.6333 H         1 <0>         0.0611
     44 H11         0.6912   -6.0580    2.6645 H         1 <0>         0.0456
     45 H12         0.7866   -6.8204    8.7113 H         1 <0>         0.0491
     46 H13        -0.1688   -7.3861    7.3201 H         1 <0>         0.0466
     47 H14         0.7900   -8.5452    8.2716 H         1 <0>         0.0990
     48 H15         4.8346   -3.9811    8.1522 H         1 <0>         0.0604
     49 H16         3.4338   -3.4035    9.0863 H         1 <0>         0.0613
     50 H17         4.5298   -4.6192    9.7857 H         1 <0>         0.1097
     51 H18         1.4127   -5.2176    0.7416 H         1 <0>         0.1379
     52 H19         1.5255   -5.1721   -1.0342 H         1 <0>         0.1488
     53 H20         3.6744   -5.2651   -2.1049 H         1 <0>         0.1324
     54 H21         4.0508   -3.7469   -1.2565 H         1 <0>         0.1194
     55 H22         6.1239   -4.9113   -1.9626 H         1 <0>         0.1136
     56 H23         6.0094   -4.8303   -0.1874 H         1 <0>         0.0870
     57 H24         5.2617   -7.2186   -1.9376 H         1 <0>         0.0834
     58 H25         6.6872   -7.0954   -0.8763 H         1 <0>         0.0959
     59 H26         4.8147   -8.3645    0.1966 H         1 <0>         0.1140
     60 H27         5.2301   -6.8859    1.0979 H         1 <0>         0.0878
     61 H28         1.4827   -7.0137    1.0133 H         1 <0>         0.0812
     62 H29         2.6397   -8.3360    1.2980 H         1 <0>         0.1105
     63 H30         2.8676   -6.7652    2.1036 H         1 <0>         0.0816
     64 H31         2.6519   -3.4350   -2.8389 H         1 <0>         0.4005
     65 H32         3.7988   -4.9461    0.8083 H         1 <0>         0.4198
@<TRIPOS>BOND
     1    1    2 1
     2    1   35 1
     3    1   36 1
     4    1   37 1
     5    2    7 ar
     6    2    3 ar
     7    3    4 ar
     8    3   38 1
     9    4    5 ar
    10    4   34 1
    11    5    6 ar
    12    5   25 1
    13    6   24 1
    14    6    7 ar
    15    7    8 1
    16    8    9 2
    17    8   10 1
    18   10   11 2
    19   10   24 1
    20   11   12 1
    21   11   39 1
    22   12   17 ar
    23   12   13 ar
    24   13   14 ar
    25   13   40 1
    26   14   15 ar
    27   14   22 1
    28   15   16 ar
    29   15   20 1
    30   16   17 ar
    31   16   18 1
    32   17   41 1
    33   18   19 1
    34   19   42 1
    35   19   43 1
    36   19   44 1
    37   20   21 1
    38   21   45 1
    39   21   46 1
    40   21   47 1
    41   22   23 1
    42   23   48 1
    43   23   49 1
    44   23   50 1
    45   25   26 1
    46   25   51 1
    47   25   52 1
    48   26   31 1
    49   26   27 1
    50   26   65 1
    51   27   28 1
    52   27   53 1
    53   27   54 1
    54   28   29 1
    55   28   55 1
    56   28   56 1
    57   29   30 1
    58   29   57 1
    59   29   58 1
    60   30   31 1
    61   30   59 1
    62   30   60 1
    63   31   32 1
    64   31   33 1
    65   33   61 1
    66   33   62 1
    67   33   63 1
    68   34   64 1
@<TRIPOS>MOLECULE
ZINC64055390
   56    61     0     0     0
SMALL
USER_CHARGES

@<TRIPOS>ATOM
      1 C1         -0.8436   -1.7872   -0.0593 C.3       1 <0>        -0.1734
      2 C2         -0.4817   -0.7378   -1.1122 C.3       1 <0>         0.1086
      3 N1          0.8548   -0.2068   -0.8331 N.pl3     1 <0>        -0.5027
      4 C3          1.1192    0.8863   -0.0276 C.ar      1 <0>         0.1462
      5 C4          0.2909    1.7388    0.6965 C.ar      1 <0>        -0.1425
      6 C5          0.8349    2.7709    1.4299 C.ar      1 <0>        -0.0792
      7 C6          2.2067    2.9713    1.4557 C.ar      1 <0>        -0.1503
      8 C7          3.0433    2.1376    0.7456 C.ar      1 <0>        -0.0586
      9 C8          2.5066    1.0907   -0.0002 C.ar      1 <0>        -0.1077
     10 C9          3.1015    0.0429   -0.8505 C.ar      1 <0>        -0.0859
     11 C10         2.0357   -0.7309   -1.3333 C.ar      1 <0>         0.1406
     12 C11         2.2994   -1.8111   -2.1698 C.ar      1 <0>        -0.1215
     13 C12         3.5973   -2.1173   -2.5159 C.ar      1 <0>        -0.0980
     14 C13         4.6560   -1.3528   -2.0347 C.ar      1 <0>         0.0969
     15 C14         4.4103   -0.2695   -1.2084 C.ar      1 <0>        -0.0557
     16 N2          5.9718   -1.6752   -2.3933 N.am      1 <0>        -0.6518
     17 C15         6.9784   -1.4656   -1.5219 C.2       1 <0>         0.5350
     18 O1          6.7362   -1.0886   -0.3948 O.2       1 <0>        -0.5028
     19 C16         8.4049   -1.6998   -1.9478 C.3       1 <0>        -0.1777
     20 S1          9.5175   -1.3333   -0.5628 S.3       1 <0>         0.2238
     21 C17        11.1246   -1.6511   -1.2114 C.2       1 <0>         0.1731
     22 N3         11.4061   -2.0572   -2.4397 N.2       1 <0>        -0.2799
     23 N4         12.6802   -2.1869   -2.5650 N.2       1 <0>        -0.1591
     24 C18        13.2653   -1.8689   -1.4214 C.2       1 <0>         0.1253
     25 O2         12.2881   -1.5197   -0.5506 O.3       1 <0>        -0.1800
     26 C19        14.6433   -1.8847   -1.1609 C.2       1 <0>         0.1357
     27 C20        15.6652   -2.2289   -2.0461 C.ar      1 <0>        -0.1217
     28 C21        15.6584   -2.6449   -3.3947 C.ar      1 <0>        -0.0204
     29 C22        16.8315   -2.9195   -4.0207 C.ar      1 <0>        -0.1387
     30 C23        18.0574   -2.8015   -3.3618 C.ar      1 <0>         0.0496
     31 C24        18.1386   -2.4073   -2.0673 C.ar      1 <0>        -0.2031
     32 C25        16.9546   -2.1023   -1.3470 C.ar      1 <0>         0.3187
     33 N5         16.7680   -1.7054   -0.1038 N.pl3     1 <0>        -0.5879
     34 C26        15.3330   -1.5256    0.1368 C.3       1 <0>         0.0820
     35 H1         -0.1165   -2.5987   -0.0902 H         1 <0>         0.0617
     36 H2         -0.8341   -1.3283    0.9294 H         1 <0>         0.0627
     37 H3         -1.8380   -2.1823   -0.2669 H         1 <0>         0.0765
     38 H4         -0.4912   -1.1967   -2.1008 H         1 <0>         0.0888
     39 H5         -1.2088    0.0737   -1.0813 H         1 <0>         0.0895
     40 H6         -0.7790    1.5915    0.6833 H         1 <0>         0.1238
     41 H7          0.1871    3.4296    1.9892 H         1 <0>         0.1305
     42 H8          2.6209    3.7839    2.0339 H         1 <0>         0.1279
     43 H9          4.1114    2.2958    0.7669 H         1 <0>         0.1242
     44 H10         1.4849   -2.4109   -2.5484 H         1 <0>         0.1307
     45 H11         3.7948   -2.9573   -3.1653 H         1 <0>         0.1344
     46 H12         5.2313    0.3240   -0.8339 H         1 <0>         0.1364
     47 H13         6.1582   -2.0492   -3.2687 H         1 <0>         0.4164
     48 H14         8.5284   -2.7405   -2.2475 H         1 <0>         0.1434
     49 H15         8.6446   -1.0488   -2.7885 H         1 <0>         0.1444
     50 H16        14.7237   -2.7447   -3.9265 H         1 <0>         0.1653
     51 H17        16.8164   -3.2373   -5.0528 H         1 <0>         0.1597
     52 H18        18.9660   -3.0310   -3.8985 H         1 <0>         0.1640
     53 H19        19.1017   -2.3260   -1.5854 H         1 <0>         0.1641
     54 H20        15.1215   -0.4892    0.3999 H         1 <0>         0.1807
     55 H21        15.0020   -2.1909    0.9342 H         1 <0>         0.1801
     56 H22        17.4699   -1.5532    0.5482 H         1 <0>         0.4579
@<TRIPOS>BOND
     1    1    2 1
     2    1   35 1
     3    1   36 1
     4    1   37 1
     5    2    3 1
     6    2   38 1
     7    2   39 1
     8    3   11 1
     9    3    4 1
    10    4    9 ar
    11    4    5 ar
    12    5    6 ar
    13    5   40 1
    14    6    7 ar
    15    6   41 1
    16    7    8 ar
    17    7   42 1
    18    8    9 ar
    19    8   43 1
    20    9   10 1
    21   10   15 ar
    22   10   11 ar
    23   11   12 ar
    24   12   13 ar
    25   12   44 1
    26   13   14 ar
    27   13   45 1
    28   14   15 ar
    29   14   16 1
    30   15   46 1
    31   16   17 am
    32   16   47 1
    33   17   18 2
    34   17   19 1
    35   19   20 1
    36   19   48 1
    37   19   49 1
    38   20   21 1
    39   21   25 1
    40   21   22 2
    41   22   23 1
    42   23   24 2
    43   24   25 1
    44   24   26 1
    45   26   34 1
    46   26   27 2
    47   27   32 ar
    48   27   28 ar
    49   28   29 ar
    50   28   50 1
    51   29   30 ar
    52   29   51 1
    53   30   31 ar
    54   30   52 1
    55   31   32 ar
    56   31   53 1
    57   32   33 2
    58   33   34 1
    59   33   56 1
    60   34   54 1
    61   34   55 1
@<TRIPOS>MOLECULE
ZINC16591614
   47    48     0     0     0
SMALL
USER_CHARGES
(2R)-N-(2-methoxy-5-nitro-phenyl)-2-[(3R)-3-(trifluoromethyl)-1-piperidyl]propanamide
@<TRIPOS>ATOM
      1 C1         -3.6088   -1.5836    1.5904 C.3       1 <0>        -0.1823
      2 C2         -3.6594   -0.8493    0.2491 C.3       1 <0>         0.0155
      3 H1         -3.7768   -1.5732   -0.5573 H         1 <0>         0.1620
      4 C3         -2.3799   -0.0784    0.0499 C.2       1 <0>         0.5042
      5 O1         -2.2980    1.0700    0.4315 O.2       1 <0>        -0.4976
      6 N1         -1.3266   -0.6651   -0.5524 N.am      1 <0>        -0.6276
      7 C4         -0.1010    0.0093   -0.6336 C.ar      1 <0>         0.0973
      8 C5          0.1690    1.0669    0.2225 C.ar      1 <0>        -0.0372
      9 C6          1.3786    1.7302    0.1409 C.ar      1 <0>        -0.0614
     10 C7          2.3220    1.3424   -0.7928 C.ar      1 <0>        -0.0130
     11 C8          2.0601    0.2894   -1.6493 C.ar      1 <0>        -0.1853
     12 C9          0.8498   -0.3808   -1.5739 C.ar      1 <0>         0.1660
     13 O2          0.5906   -1.4165   -2.4160 O.3       1 <0>        -0.3105
     14 C10         1.6119   -1.7609   -3.3543 C.3       1 <0>         0.0190
     15 N2          1.6651    2.8585    1.0551 N.pl3     1 <0>         0.0294
     16 O3          0.8352    3.2013    1.8781 O.2       1 <0>        -0.1539
     17 O4          2.7307    3.4441    0.9845 O.3       1 <0>        -0.1474
     18 C11        -4.8314    0.8790    1.4739 C.3       1 <0>        -0.0299
     19 C12        -6.1046    1.7277    1.4977 C.3       1 <0>        -0.1352
     20 C13        -6.1238    2.6448    0.2716 C.3       1 <0>        -0.1406
     21 C14        -6.0383    1.7905   -0.9963 C.3       1 <0>        -0.1555
     22 H2         -6.9101    1.1389   -1.0562 H         1 <0>         0.1398
     23 C15        -4.7671    0.9399   -0.9477 C.3       1 <0>        -0.0169
     24 C16        -5.9965    2.7020   -2.2245 C.3       1 <0>         0.4663
     25 F1         -5.9139    1.9210   -3.3822 F         1 <0>        -0.1754
     26 F2         -7.1589    3.4792   -2.2682 F         1 <0>        -0.1634
     27 F3         -4.8784    3.5392   -2.1460 F         1 <0>        -0.1711
     28 H3         -2.7646   -2.2731    1.5955 H         1 <0>         0.1137
     29 H4         -3.4914   -0.8597    2.3968 H         1 <0>         0.0976
     30 H5         -4.5342   -2.1412    1.7345 H         1 <0>         0.1041
     31 H6         -1.4169   -1.5541   -0.9297 H         1 <0>         0.4297
     32 H7         -0.5678    1.3748    0.9497 H         1 <0>         0.1887
     33 H8          3.2660    1.8637   -0.8530 H         1 <0>         0.1660
     34 H9          2.7990   -0.0107   -2.3777 H         1 <0>         0.1646
     35 H10         1.8182   -0.9052   -3.9973 H         1 <0>         0.0694
     36 H11         2.5190   -2.0395   -2.8180 H         1 <0>         0.0700
     37 H12         1.2775   -2.6007   -3.9634 H         1 <0>         0.1161
     38 H13        -4.8216    0.2147    2.3381 H         1 <0>         0.1395
     39 H14        -3.9591    1.5317    1.5079 H         1 <0>         0.1582
     40 H15        -6.1221    2.3322    2.4045 H         1 <0>         0.1254
     41 H16        -6.9774    1.0752    1.4777 H         1 <0>         0.0923
     42 H17        -5.2721    3.3239    0.3113 H         1 <0>         0.1005
     43 H18        -7.0490    3.2210    0.2609 H         1 <0>         0.1110
     44 H19        -3.8951    1.5924   -0.9025 H         1 <0>         0.1544
     45 H20        -4.7107    0.3199   -1.8425 H         1 <0>         0.1404
     46 N3         -4.8217    0.0629    0.2410 N.4       1 <0>        -0.3724
     47 H21        -5.6830   -0.4948    0.2041 H         1 <0>         0.4354
@<TRIPOS>BOND
     1    1    2 1
     2    1   28 1
     3    1   29 1
     4    1   30 1
     5    2    3 1
     6    2    4 1
     7    2   46 1
     8    4    5 2
     9    4    6 am
    10    6    7 1
    11    6   31 1
    12    7   12 ar
    13    7    8 ar
    14    8    9 ar
    15    8   32 1
    16    9   10 ar
    17    9   15 1
    18   10   11 ar
    19   10   33 1
    20   11   12 ar
    21   11   34 1
    22   12   13 1
    23   13   14 1
    24   14   35 1
    25   14   36 1
    26   14   37 1
    27   15   16 2
    28   15   17 1
    29   18   19 1
    30   18   38 1
    31   18   39 1
    32   18   46 1
    33   19   20 1
    34   19   40 1
    35   19   41 1
    36   20   21 1
    37   20   42 1
    38   20   43 1
    39   21   22 1
    40   21   23 1
    41   21   24 1
    42   23   44 1
    43   23   45 1
    44   23   46 1
    45   24   25 1
    46   24   26 1
    47   24   27 1
    48   46   47 1
@<TRIPOS>MOLECULE
ZINC03742128
   54    58     0     0     0
SMALL
USER_CHARGES

@<TRIPOS>ATOM
      1 C1         -0.0127    1.3162   -0.6936 C.ar      1 <0>        -0.0831
      2 C2          1.1328    2.0557   -0.4661 C.ar      1 <0>        -0.1019
      3 C3          2.3418    1.4148   -0.2700 C.ar      1 <0>        -0.0858
      4 C4          2.4051    0.0342   -0.3010 C.ar      1 <0>        -0.1496
      5 C5          1.2595   -0.7054   -0.5276 C.ar      1 <0>        -0.1138
      6 C6          0.0508   -0.0643   -0.7251 C.ar      1 <0>        -0.1001
      7 C7          3.7233   -0.6645   -0.0882 C.3       1 <0>         0.0641
      8 H1          4.5391    0.0327   -0.2791 H         1 <0>         0.1696
      9 C8          3.8065   -1.1581    1.3333 C.2       1 <0>         0.5127
     10 O1          3.7030   -2.3430    1.5709 O.2       1 <0>        -0.5042
     11 N1          3.9959   -0.2828    2.3405 N.am      1 <0>        -0.6355
     12 C9          4.1838   -0.7495    3.6480 C.ar      1 <0>         0.1283
     13 C10         5.0416   -0.0774    4.5085 C.ar      1 <0>        -0.1174
     14 C11         5.2276   -0.5362    5.7985 C.ar      1 <0>        -0.0814
     15 C12         4.5594   -1.6681    6.2370 C.ar      1 <0>         0.0383
     16 C13         3.6984   -2.3444    5.3761 C.ar      1 <0>         0.0531
     17 C14         3.5082   -1.8805    4.0852 C.ar      1 <0>        -0.0992
     18 O2          3.1700   -3.4143    6.0392 O.3       1 <0>        -0.3035
     19 C15         4.0260   -3.6221    7.1781 C.3       1 <0>         0.2124
     20 O3          4.5701   -2.3151    7.4400 O.3       1 <0>        -0.3022
     21 N2          3.8276   -1.8043   -1.0091 N.4       1 <0>        -0.3696
     22 C16         5.1567   -2.4139   -0.8817 C.3       1 <0>        -0.0062
     23 C17         5.2411   -3.6530   -1.7761 C.3       1 <0>        -0.1430
     24 C18         4.9963   -3.2426   -3.2300 C.3       1 <0>         0.2477
     25 C19         3.6439   -2.5349   -3.3408 C.3       1 <0>        -0.1627
     26 C20         3.6213   -1.3391   -2.3858 C.3       1 <0>        -0.0025
     27 O4          4.9962   -4.4112   -4.0649 O.3       1 <0>        -0.3565
     28 C21         5.6122   -3.9811   -5.3029 C.3       1 <0>         0.0133
     29 C22         6.6844   -2.9862   -4.7925 C.3       1 <0>         0.0214
     30 O5          6.0390   -2.3612   -3.6643 O.3       1 <0>        -0.3788
     31 H2         -0.9580    1.8168   -0.8423 H         1 <0>         0.1395
     32 H3          1.0833    3.1343   -0.4418 H         1 <0>         0.1416
     33 H4          3.2369    1.9926   -0.0929 H         1 <0>         0.1379
     34 H5          1.3090   -1.7840   -0.5522 H         1 <0>         0.1222
     35 H6         -0.8442   -0.6422   -0.9025 H         1 <0>         0.1395
     36 H7          4.0021    0.6703    2.1602 H         1 <0>         0.4221
     37 H8          5.5642    0.8046    4.1691 H         1 <0>         0.1463
     38 H9          5.8952   -0.0118    6.4661 H         1 <0>         0.1486
     39 H10         2.8375   -2.4008    3.4175 H         1 <0>         0.1506
     40 H11         3.4480   -3.9746    8.0324 H         1 <0>         0.1396
     41 H12         4.8217   -4.3267    6.9357 H         1 <0>         0.0911
     42 H13         5.9167   -1.6943   -1.1859 H         1 <0>         0.1380
     43 H14         5.3255   -2.7028    0.1556 H         1 <0>         0.1434
     44 H15         6.2310   -4.1004   -1.6858 H         1 <0>         0.1253
     45 H16         4.4848   -4.3756   -1.4695 H         1 <0>         0.1084
     46 H17         3.4978   -2.1869   -4.3634 H         1 <0>         0.1218
     47 H18         2.8469   -3.2289   -3.0742 H         1 <0>         0.1076
     48 H19         2.6574   -0.8352   -2.4580 H         1 <0>         0.1397
     49 H20         4.4153   -0.6432   -2.6566 H         1 <0>         0.1401
     50 H21         6.0746   -4.8212   -5.8211 H         1 <0>         0.1218
     51 H22         4.8884   -3.4792   -5.9450 H         1 <0>         0.0845
     52 H23         7.5829   -3.5166   -4.4771 H         1 <0>         0.0872
     53 H24         6.9207   -2.2479   -5.5588 H         1 <0>         0.1119
     54 H25         3.1229   -2.4881   -0.7772 H         1 <0>         0.4266
@<TRIPOS>BOND
     1    1    6 ar
     2    1    2 ar
     3    1   31 1
     4    2    3 ar
     5    2   32 1
     6    3    4 ar
     7    3   33 1
     8    4    5 ar
     9    4    7 1
    10    5    6 ar
    11    5   34 1
    12    6   35 1
    13    7    8 1
    14    7    9 1
    15    7   21 1
    16    9   10 2
    17    9   11 am
    18   11   12 1
    19   11   36 1
    20   12   17 ar
    21   12   13 ar
    22   13   14 ar
    23   13   37 1
    24   14   15 ar
    25   14   38 1
    26   15   20 1
    27   15   16 ar
    28   16   17 ar
    29   16   18 1
    30   17   39 1
    31   18   19 1
    32   19   20 1
    33   19   40 1
    34   19   41 1
    35   21   26 1
    36   21   22 1
    37   21   54 1
    38   22   23 1
    39   22   42 1
    40   22   43 1
    41   23   24 1
    42   23   44 1
    43   23   45 1
    44   24   30 1
    45   24   25 1
    46   24   27 1
    47   25   26 1
    48   25   46 1
    49   25   47 1
    50   26   48 1
    51   26   49 1
    52   27   28 1
    53   28   29 1
    54   28   50 1
    55   28   51 1
    56   29   30 1
    57   29   52 1
    58   29   53 1
@<TRIPOS>MOLECULE
ZINC40011312
   48    51     0     0     0
SMALL
USER_CHARGES

@<TRIPOS>ATOM
      1 C1         -0.0184    1.5028    0.0103 C.3       1 <0>        -0.1362
      2 C2          0.0021   -0.0041    0.0020 C.ar      1 <0>        -0.0540
      3 C3          0.0052   -0.6722   -1.2301 C.ar      1 <0>         0.0374
      4 C4          0.0292   -2.0220   -1.3084 C.ar      1 <0>        -0.1711
      5 C5          0.0526   -2.8120   -0.0712 C.ar      1 <0>         0.3290
      6 N1          0.0458   -4.1068    0.1394 N.pl3     1 <0>        -0.5232
      7 C6          0.2040   -4.3509    1.5632 C.3       1 <0>         0.2333
      8 H1          1.2002   -4.7464    1.7618 H         1 <0>         0.2013
      9 C7          0.0435   -2.9987    2.2352 C.2       1 <0>         0.0216
     10 C8          0.0366   -2.0749    1.2179 C.ar      1 <0>        -0.0177
     11 C9          0.0222   -0.6616    1.1838 C.ar      1 <0>        -0.0715
     12 N2         -0.1842   -2.8882    3.5463 N.2       1 <0>        -0.0439
     13 N3         -0.7800   -3.9023    4.0975 N.2       1 <0>        -0.1047
     14 C10        -1.2020   -4.9693    3.3758 C.2       1 <0>         0.2179
     15 N4         -0.8045   -5.2305    2.1516 N.2       1 <0>        -0.5095
     16 S1         -2.3492   -6.0761    4.1266 S.3       1 <0>         0.2358
     17 C11        -2.6450   -7.3326    2.8522 C.3       1 <0>        -0.1785
     18 C12        -3.6226   -8.3549    3.3720 C.2       1 <0>         0.5321
     19 O1         -4.0751   -8.2466    4.4920 O.2       1 <0>        -0.5153
     20 N5         -3.9939   -9.3897    2.5924 N.am      1 <0>        -0.7118
     21 C13        -4.9442  -10.3835    3.0978 C.3       1 <0>         0.1622
     22 C14        -5.1900  -11.4274    2.0390 C.ar      1 <0>        -0.0788
     23 C15        -6.2082  -11.2527    1.1198 C.ar      1 <0>        -0.1383
     24 C16        -6.4363  -12.2084    0.1473 C.ar      1 <0>        -0.0786
     25 C17        -5.6471  -13.3412    0.0919 C.ar      1 <0>        -0.1965
     26 C18        -4.6251  -13.5188    1.0127 C.ar      1 <0>         0.1288
     27 C19        -4.3944  -12.5551    1.9840 C.ar      1 <0>        -0.1332
     28 O2         -3.8475  -14.6321    0.9602 O.3       1 <0>        -0.3160
     29 C20        -4.1386  -15.5788   -0.0699 C.3       1 <0>         0.0252
     30 H2          1.0042    1.8801    0.0026 H         1 <0>         0.0973
     31 H3         -0.5455    1.8639   -0.8728 H         1 <0>         0.0884
     32 H4         -0.5286    1.8543    0.9071 H         1 <0>         0.0882
     33 H5         -0.0124   -0.0933   -2.1417 H         1 <0>         0.1747
     34 H6          0.0308   -2.5133   -2.2702 H         1 <0>         0.1770
     35 H7          0.0230   -0.1030    2.1081 H         1 <0>         0.1703
     36 H8         -3.0558   -6.8571    1.9615 H         1 <0>         0.1332
     37 H9         -1.7049   -7.8237    2.6009 H         1 <0>         0.1374
     38 H10        -3.6319   -9.4764    1.6966 H         1 <0>         0.4064
     39 H11        -4.5334  -10.8590    3.9884 H         1 <0>         0.0869
     40 H12        -5.8843   -9.8924    3.3490 H         1 <0>         0.0876
     41 H13        -6.8266  -10.3683    1.1619 H         1 <0>         0.1268
     42 H14        -7.2321  -12.0697   -0.5694 H         1 <0>         0.1302
     43 H15        -5.8261  -14.0879   -0.6676 H         1 <0>         0.1323
     44 H16        -3.5962  -12.6888    2.6992 H         1 <0>         0.1335
     45 H17        -5.1602  -15.9403    0.0471 H         1 <0>         0.0589
     46 H18        -4.0316  -15.1006   -1.0436 H         1 <0>         0.0570
     47 H19        -3.4460  -16.4174    0.0011 H         1 <0>         0.1046
     48 H20        -0.0496   -4.7893   -0.5432 H         1 <0>         0.4634
@<TRIPOS>BOND
     1    1    2 1
     2    1   30 1
     3    1   31 1
     4    1   32 1
     5    2   11 ar
     6    2    3 ar
     7    3    4 ar
     8    3   33 1
     9    4    5 ar
    10    4   34 1
    11    5   10 ar
    12    5    6 2
    13    6    7 1
    14    6   48 1
    15    7    8 1
    16    7   15 1
    17    7    9 1
    18    9   10 2
    19    9   12 1
    20   10   11 ar
    21   11   35 1
    22   12   13 2
    23   13   14 1
    24   14   15 2
    25   14   16 1
    26   16   17 1
    27   17   18 1
    28   17   36 1
    29   17   37 1
    30   18   19 2
    31   18   20 am
    32   20   21 1
    33   20   38 1
    34   21   22 1
    35   21   39 1
    36   21   40 1
    37   22   27 ar
    38   22   23 ar
    39   23   24 ar
    40   23   41 1
    41   24   25 ar
    42   24   42 1
    43   25   26 ar
    44   25   43 1
    45   26   27 ar
    46   26   28 1
    47   27   44 1
    48   28   29 1
    49   29   45 1
    50   29   46 1
    51   29   47 1
@<TRIPOS>MOLECULE
ZINC63281149
   45    49     0     0     0
SMALL
USER_CHARGES

@<TRIPOS>ATOM
      1 C1         -0.0173    1.4248    0.0099 C.3       1 <0>         0.0246
      2 O1          0.0021   -0.0041    0.0020 O.3       1 <0>        -0.3151
      3 C2         -1.2010   -0.6378    0.0101 C.ar      1 <0>         0.1043
      4 C3         -2.3743    0.1017    0.0195 C.ar      1 <0>        -0.1667
      5 C4         -3.5964   -0.5421    0.0278 C.ar      1 <0>        -0.1006
      6 C5         -3.6502   -1.9280    0.0261 C.ar      1 <0>         0.0832
      7 C6         -2.4769   -2.6676    0.0157 C.ar      1 <0>        -0.1642
      8 C7         -1.2548   -2.0238    0.0032 C.ar      1 <0>        -0.1118
      9 O2         -4.8533   -2.5618    0.0351 O.3       1 <0>        -0.3106
     10 C8         -4.8338   -3.9907    0.0327 C.3       1 <0>         0.1438
     11 C9         -6.2477   -4.5123    0.0436 C.2       1 <0>         0.2476
     12 N1         -6.9579   -4.7731    1.1008 N.2       1 <0>        -0.2272
     13 N2         -8.1168   -5.2138    0.7566 N.2       1 <0>        -0.2045
     14 C10        -8.1902   -5.2693   -0.5366 C.2       1 <0>         0.1399
     15 N3         -7.0199   -4.7921   -1.0696 N.pl3     1 <0>        -0.3638
     16 N4         -6.8979   -4.6920   -2.4238 N.3       1 <0>        -0.4515
     17 C11        -7.8258   -5.5541   -3.2033 C.3       1 <0>         0.1031
     18 H1         -8.1677   -5.0572   -4.1111 H         1 <0>         0.1980
     19 S1         -9.1744   -5.7048   -1.9548 S.3       1 <0>         0.0153
     20 C12        -7.2016   -6.9159   -3.5144 C.3       1 <0>         0.1048
     21 H2         -6.2515   -6.7838   -4.0320 H         1 <0>         0.1978
     22 C13        -8.1456   -7.7411   -4.3602 C.2       1 <0>         0.0337
     23 C14        -8.4276   -8.8479   -3.6357 C.ar      1 <0>        -0.1422
     24 C15        -9.2718  -10.0196   -3.8981 C.ar      1 <0>        -0.0116
     25 C16        -9.3583  -10.9892   -2.9593 C.ar      1 <0>        -0.1465
     26 C17        -8.6637  -10.9034   -1.7449 C.ar      1 <0>         0.0685
     27 C18        -7.8689   -9.8582   -1.4317 C.ar      1 <0>        -0.2119
     28 C19        -7.7045   -8.7811   -2.3457 C.ar      1 <0>         0.3475
     29 N5         -7.0010   -7.6753   -2.2752 N.pl3     1 <0>        -0.5875
     30 H3          1.0053    1.8021    0.0021 H         1 <0>         0.1048
     31 H4         -0.5445    1.7859   -0.8732 H         1 <0>         0.0571
     32 H5         -0.5275    1.7763    0.9067 H         1 <0>         0.0581
     33 H6         -2.3325    1.1809    0.0208 H         1 <0>         0.1400
     34 H7         -4.5101    0.0337    0.0358 H         1 <0>         0.1354
     35 H8         -2.5187   -3.7467    0.0148 H         1 <0>         0.1332
     36 H9         -0.3412   -2.5996   -0.0087 H         1 <0>         0.1383
     37 H10        -4.3225   -4.3456   -0.8620 H         1 <0>         0.0925
     38 H11        -4.3078   -4.3484    0.9179 H         1 <0>         0.1110
     39 H12        -6.9610   -3.7303   -2.7224 H         1 <0>         0.4049
     40 H13        -8.5190   -7.4961   -5.3435 H         1 <0>         0.2194
     41 H14        -9.8160  -10.1060   -4.8270 H         1 <0>         0.1685
     42 H15        -9.9792  -11.8521   -3.1501 H         1 <0>         0.1625
     43 H16        -8.7690  -11.7062   -1.0302 H         1 <0>         0.1651
     44 H17        -7.3550   -9.8399   -0.4819 H         1 <0>         0.1617
     45 H18        -6.4426   -7.4048   -1.5296 H         1 <0>         0.4512
@<TRIPOS>BOND
     1    1    2 1
     2    1   30 1
     3    1   31 1
     4    1   32 1
     5    2    3 1
     6    3    8 ar
     7    3    4 ar
     8    4    5 ar
     9    4   33 1
    10    5    6 ar
    11    5   34 1
    12    6    7 ar
    13    6    9 1
    14    7    8 ar
    15    7   35 1
    16    8   36 1
    17    9   10 1
    18   10   11 1
    19   10   37 1
    20   10   38 1
    21   11   15 1
    22   11   12 2
    23   12   13 1
    24   13   14 2
    25   14   19 1
    26   14   15 1
    27   15   16 1
    28   16   17 1
    29   16   39 1
    30   17   18 1
    31   17   19 1
    32   17   20 1
    33   20   21 1
    34   20   29 1
    35   20   22 1
    36   22   23 2
    37   22   40 1
    38   23   28 ar
    39   23   24 ar
    40   24   25 ar
    41   24   41 1
    42   25   26 ar
    43   25   42 1
    44   26   27 ar
    45   26   43 1
    46   27   28 ar
    47   27   44 1
    48   28   29 2
    49   29   45 1
@<TRIPOS>MOLECULE
ZINC66898823
   55    59     0     0     0
SMALL
USER_CHARGES

@<TRIPOS>ATOM
      1 C1          0.3322    0.9129    1.2895 C.ar      1 <0>        -0.1022
      2 C2          1.5299    1.6007    1.2286 C.ar      1 <0>        -0.1059
      3 C3          2.3453    1.4763    0.1197 C.ar      1 <0>        -0.1379
      4 C4          1.9640    0.6603   -0.9351 C.ar      1 <0>         0.0627
      5 C5          0.7612   -0.0330   -0.8728 C.ar      1 <0>         0.0643
      6 C6         -0.0532    0.0975    0.2424 C.ar      1 <0>        -0.0858
      7 O1          0.3717   -0.8451   -1.8933 O.3       1 <0>        -0.2968
      8 C7          1.0321   -0.6610   -3.1502 C.3       1 <0>         0.0180
      9 C8          2.5414   -0.5633   -2.8904 C.3       1 <0>         0.0204
     10 O2          2.7755    0.5509   -2.0223 O.3       1 <0>        -0.3160
     11 C9          3.6497    2.2282    0.0564 C.3       1 <0>         0.0826
     12 H1          4.3847    1.6489   -0.5025 H         1 <0>         0.1472
     13 C10         4.1698    2.4985    1.4839 C.3       1 <0>        -0.1411
     14 C11         4.7674    3.9259    1.3738 C.3       1 <0>        -0.1453
     15 C12         3.7876    4.5996    0.3810 C.3       1 <0>        -0.0017
     16 N1          3.4437    3.5363   -0.5921 N.4       1 <0>        -0.3779
     17 C13         2.0382    3.6711   -0.9975 C.3       1 <0>        -0.0395
     18 C14         1.8623    4.9569   -1.8078 C.3       1 <0>         0.0913
     19 H2          2.4941    4.9165   -2.6951 H         1 <0>         0.1332
     20 C15         0.3985    5.0974   -2.2301 C.3       1 <0>         0.0323
     21 O3          0.2559    6.2348   -3.0834 O.3       1 <0>        -0.2950
     22 C16        -0.9925    6.5032   -3.5509 C.ar      1 <0>         0.1338
     23 C17        -2.0573    5.6910   -3.1900 C.ar      1 <0>        -0.2000
     24 C18        -3.3271    5.9619   -3.6641 C.ar      1 <0>        -0.0601
     25 C19        -3.5397    7.0453   -4.5008 C.ar      1 <0>         0.0051
     26 C20        -2.4721    7.8621   -4.8645 C.ar      1 <0>         0.0796
     27 C21        -1.2014    7.5920   -4.3836 C.ar      1 <0>        -0.1300
     28 O4         -2.9373    8.8486   -5.6855 O.3       1 <0>        -0.3020
     29 C22        -4.2211    8.3901   -6.1488 C.3       1 <0>         0.2130
     30 O5         -4.6745    7.5205   -5.0945 O.3       1 <0>        -0.3047
     31 O6          2.2369    6.0796   -1.0070 O.3       1 <0>        -0.5411
     32 H3         -0.3013    1.0094    2.1589 H         1 <0>         0.1472
     33 H4          1.8287    2.2367    2.0488 H         1 <0>         0.1460
     34 H5         -0.9893   -0.4387    0.2925 H         1 <0>         0.1483
     35 H6          0.8255   -1.5101   -3.8017 H         1 <0>         0.1339
     36 H7          0.6797    0.2574   -3.6196 H         1 <0>         0.0831
     37 H8          2.8928   -1.4793   -2.4155 H         1 <0>         0.0886
     38 H9          3.0677   -0.4119   -3.8329 H         1 <0>         0.1340
     39 H10         3.3507    2.4780    2.2028 H         1 <0>         0.1065
     40 H11         4.9409    1.7777    1.7561 H         1 <0>         0.1156
     41 H12         4.7532    4.4307    2.3397 H         1 <0>         0.1186
     42 H13         5.7776    3.8958    0.9655 H         1 <0>         0.0996
     43 H14         2.8939    4.9415    0.9030 H         1 <0>         0.1269
     44 H15         4.2741    5.4329   -0.1258 H         1 <0>         0.1456
     45 H16         1.7525    2.8148   -1.6083 H         1 <0>         0.1395
     46 H17         1.4064    3.7115   -0.1102 H         1 <0>         0.1360
     47 H18         0.0870    4.2004   -2.7653 H         1 <0>         0.0804
     48 H19        -0.2242    5.2270   -1.3449 H         1 <0>         0.0785
     49 H20        -1.8940    4.8456   -2.5381 H         1 <0>         0.1383
     50 H21        -4.1546    5.3279   -3.3820 H         1 <0>         0.1425
     51 H22        -0.3727    8.2267   -4.6608 H         1 <0>         0.1470
     52 H23        -4.9053    9.2294   -6.2738 H         1 <0>         0.1388
     53 H24        -4.1164    7.8376   -7.0825 H         1 <0>         0.0904
     54 H25         1.7150    6.1780   -0.1989 H         1 <0>         0.3864
     55 H26         4.0386    3.6104   -1.4036 H         1 <0>         0.4279
@<TRIPOS>BOND
     1    1    6 ar
     2    1    2 ar
     3    1   32 1
     4    2    3 ar
     5    2   33 1
     6    3    4 ar
     7    3   11 1
     8    4   10 1
     9    4    5 ar
    10    5    6 ar
    11    5    7 1
    12    6   34 1
    13    7    8 1
    14    8    9 1
    15    8   35 1
    16    8   36 1
    17    9   10 1
    18    9   37 1
    19    9   38 1
    20   11   12 1
    21   11   16 1
    22   11   13 1
    23   13   14 1
    24   13   39 1
    25   13   40 1
    26   14   15 1
    27   14   41 1
    28   14   42 1
    29   15   16 1
    30   15   43 1
    31   15   44 1
    32   16   17 1
    33   16   55 1
    34   17   18 1
    35   17   45 1
    36   17   46 1
    37   18   19 1
    38   18   20 1
    39   18   31 1
    40   20   21 1
    41   20   47 1
    42   20   48 1
    43   21   22 1
    44   22   27 ar
    45   22   23 ar
    46   23   24 ar
    47   23   49 1
    48   24   25 ar
    49   24   50 1
    50   25   30 1
    51   25   26 ar
    52   26   27 ar
    53   26   28 1
    54   27   51 1
    55   28   29 1
    56   29   30 1
    57   29   52 1
    58   29   53 1
    59   31   54 1
@<TRIPOS>MOLECULE
ZINC19300592
   51    55     0     0     0
SMALL
USER_CHARGES
5-(8-methoxy-2H-chromen-3-yl)-1-(1-methyl-4-piperidyl)-4H-pyrazolo[5,4-d]imidazole
@<TRIPOS>ATOM
      1 C1          1.8380    8.5596    0.0339 C.3       1 <0>        -0.0459
      2 N1          2.1344    7.1209    0.0227 N.4       1 <0>        -0.4030
      3 C2          1.6235    6.4688    1.2352 C.3       1 <0>         0.0002
      4 C3          2.0749    5.0067    1.2586 C.3       1 <0>        -0.1591
      5 C4          1.5450    4.2940    0.0113 C.3       1 <0>         0.1712
      6 C5          2.0509    5.0211   -1.2377 C.3       1 <0>        -0.1593
      7 C6          1.6014    6.4832   -1.1879 C.3       1 <0>         0.0004
      8 N2          2.0226    2.9091   -0.0013 N.pl3     1 <0>        -0.3870
      9 C7          1.2381    1.7855   -0.0002 C.2       1 <0>         0.1682
     10 C8          2.1027    0.6938   -0.0143 C.2       1 <0>        -0.0620
     11 C9          3.4108    1.1933   -0.0237 C.2       1 <0>         0.1327
     12 N3          3.3618    2.4993   -0.0160 N.2       1 <0>        -0.2543
     13 N4          1.3026   -0.4368   -0.0127 N.2       1 <0>        -0.4267
     14 C10         0.0021   -0.0041    0.0020 C.2       1 <0>         0.2991
     15 N5         -0.0158    1.3130    0.0093 N.pl3     1 <0>        -0.5318
     16 C11        -1.1806   -0.8692    0.0094 C.2       1 <0>        -0.1383
     17 C12        -1.0379   -2.2149   -0.0044 C.2       1 <0>        -0.0086
     18 C13        -2.2596   -3.0378   -0.0112 C.ar      1 <0>        -0.1060
     19 C14        -2.2266   -4.3940    0.3111 C.ar      1 <0>        -0.0952
     20 C15        -3.3945   -5.1289    0.2894 C.ar      1 <0>        -0.1024
     21 C16        -4.5943   -4.5268   -0.0509 C.ar      1 <0>        -0.1655
     22 C17        -4.6399   -3.1786   -0.3739 C.ar      1 <0>         0.1091
     23 C18        -3.4745   -2.4265   -0.3565 C.ar      1 <0>         0.0982
     24 O1         -3.4828   -1.1051   -0.6673 O.3       1 <0>        -0.2921
     25 C19        -2.5601   -0.2642    0.0261 C.3       1 <0>         0.1128
     26 O2         -5.8232   -2.5961   -0.7060 O.3       1 <0>        -0.3067
     27 C20        -6.9817   -3.4326   -0.7025 C.3       1 <0>         0.0203
     28 H1          2.2476    9.0112    0.9495 H         1 <0>         0.1264
     29 H2          0.7486    8.7097    0.0066 H         1 <0>         0.1194
     30 H3          2.2959    9.0351   -0.8460 H         1 <0>         0.1266
     31 H4          2.0149    6.9871    2.1230 H         1 <0>         0.1400
     32 H5          0.5244    6.5128    1.2398 H         1 <0>         0.1281
     33 H6          3.1740    4.9624    1.2692 H         1 <0>         0.1082
     34 H7          1.6794    4.5152    2.1597 H         1 <0>         0.1164
     35 H8          0.4458    4.2541    0.0217 H         1 <0>         0.1027
     36 H9          3.1494    4.9742   -1.2695 H         1 <0>         0.1083
     37 H10         1.6372    4.5388   -2.1356 H         1 <0>         0.1166
     38 H11         0.5024    6.5276   -1.1722 H         1 <0>         0.1281
     39 H12         1.9770    7.0117   -2.0765 H         1 <0>         0.1401
     40 H13         4.3116    0.5976   -0.0349 H         1 <0>         0.2006
     41 H14        -0.0326   -2.6613   -0.0102 H         1 <0>         0.1595
     42 H15        -1.2925   -4.8665    0.5769 H         1 <0>         0.1383
     43 H16        -3.3726   -6.1795    0.5388 H         1 <0>         0.1366
     44 H17        -5.5021   -5.1118   -0.0645 H         1 <0>         0.1406
     45 H18        -2.8962   -0.1464    1.0668 H         1 <0>         0.0764
     46 H19        -2.5349    0.7199   -0.4647 H         1 <0>         0.1035
     47 H20        -7.8632   -2.8393   -0.9871 H         1 <0>         0.1057
     48 H21        -7.1299   -3.8495    0.3046 H         1 <0>         0.0588
     49 H22        -6.8438   -4.2529   -1.4223 H         1 <0>         0.0593
     50 H23         3.2276    6.9994    0.0120 H         1 <0>         0.4476
     51 H24        -0.8663    2.0105    0.0213 H         1 <0>         0.4439
@<TRIPOS>BOND
     1    1    2 1
     2    1   28 1
     3    1   29 1
     4    1   30 1
     5    2    7 1
     6    2    3 1
     7    2   50 1
     8    3    4 1
     9    3   31 1
    10    3   32 1
    11    4    5 1
    12    4   33 1
    13    4   34 1
    14    5    6 1
    15    5    8 1
    16    5   35 1
    17    6    7 1
    18    6   36 1
    19    6   37 1
    20    7   38 1
    21    7   39 1
    22    8   12 1
    23    8    9 1
    24    9   15 1
    25    9   10 2
    26   10   11 1
    27   10   13 1
    28   11   12 2
    29   11   40 1
    30   13   14 2
    31   14   15 1
    32   14   16 1
    33   15   51 1
    34   16   25 1
    35   16   17 2
    36   17   18 1
    37   17   41 1
    38   18   23 ar
    39   18   19 ar
    40   19   20 ar
    41   19   42 1
    42   20   21 ar
    43   20   43 1
    44   21   22 ar
    45   21   44 1
    46   22   23 ar
    47   22   26 1
    48   23   24 1
    49   24   25 1
    50   25   45 1
    51   25   46 1
    52   26   27 1
    53   27   47 1
    54   27   48 1
    55   27   49 1
@<TRIPOS>MOLECULE
ZINC39697664
   40    43     0     0     0
SMALL
USER_CHARGES

@<TRIPOS>ATOM
      1 C1         -0.0187    1.5258    0.0104 C.3       1 <0>        -0.1546
      2 C2          0.0021   -0.0041    0.0020 C.3       1 <0>        -0.1014
      3 C3         -1.4117   -0.5257    0.0127 C.ar      1 <0>        -0.0521
      4 C4         -2.0352   -0.7605    1.2459 C.ar      1 <0>         0.0400
      5 C5         -3.2994   -1.2336    1.3263 C.ar      1 <0>        -0.1716
      6 C6         -4.0421   -1.5094    0.0904 C.ar      1 <0>         0.3301
      7 N1         -5.2660   -1.9329   -0.1180 N.pl3     1 <0>        -0.5235
      8 C7         -5.4500   -2.1524   -1.5427 C.3       1 <0>         0.2339
      9 H1         -5.4917   -3.2218   -1.7494 H         1 <0>         0.2021
     10 C8         -4.2316   -1.5452   -2.2155 C.2       1 <0>         0.0209
     11 C9         -3.3583   -1.2387   -1.1998 C.ar      1 <0>        -0.0164
     12 C10        -2.0340   -0.7447   -1.1680 C.ar      1 <0>        -0.0672
     13 N2         -4.2094   -1.2835   -3.5248 N.2       1 <0>        -0.0415
     14 N3         -5.3665   -1.0555   -4.0690 N.2       1 <0>        -0.1053
     15 C11        -6.5099   -1.0190   -3.3418 C.2       1 <0>         0.2195
     16 N4         -6.6181   -1.4902   -2.1207 N.2       1 <0>        -0.5093
     17 S1         -7.9390   -0.2999   -4.0803 S.3       1 <0>         0.2403
     18 C12        -9.2165   -0.4498   -2.8012 C.3       1 <0>        -0.1765
     19 C13       -10.5084    0.1355   -3.3104 C.2       1 <0>         0.5279
     20 O1        -10.5620    0.6073   -4.4264 O.2       1 <0>        -0.4475
     21 N5        -11.6042    0.1346   -2.5258 N.am      1 <0>        -0.6124
     22 C14       -12.7958    0.6745   -2.9955 C.2       1 <0>         0.2507
     23 N6        -13.0406    1.2187   -4.1678 N.2       1 <0>        -0.5146
     24 C15       -14.2374    1.6904   -4.4646 C.2       1 <0>         0.0584
     25 C16       -15.1943    1.5875   -3.5098 C.2       1 <0>        -0.2277
     26 S2        -14.2777    0.7840   -2.2052 S.3       1 <0>         0.1280
     27 H2          1.0039    1.9031    0.0027 H         1 <0>         0.0764
     28 H3         -0.5459    1.8868   -0.8726 H         1 <0>         0.0611
     29 H4         -0.5289    1.8773    0.9072 H         1 <0>         0.0609
     30 H5          0.5123   -0.3556   -0.8948 H         1 <0>         0.0937
     31 H6          0.5293   -0.3651    0.8851 H         1 <0>         0.0939
     32 H7         -1.4910   -0.5583    2.1566 H         1 <0>         0.1746
     33 H8         -3.7574   -1.4069    2.2889 H         1 <0>         0.1775
     34 H9         -1.5141   -0.5447   -2.0932 H         1 <0>         0.1703
     35 H10        -9.3652   -1.5019   -2.5578 H         1 <0>         0.1430
     36 H11        -8.9009    0.0887   -1.9076 H         1 <0>         0.1388
     37 H12       -11.5612   -0.2428   -1.6332 H         1 <0>         0.4294
     38 H13       -14.4447    2.1387   -5.4250 H         1 <0>         0.1816
     39 H14       -16.2274    1.9016   -3.5332 H         1 <0>         0.2047
     40 H15        -5.9381   -2.0761    0.5666 H         1 <0>         0.4637
@<TRIPOS>BOND
     1    1    2 1
     2    1   27 1
     3    1   28 1
     4    1   29 1
     5    2    3 1
     6    2   30 1
     7    2   31 1
     8    3   12 ar
     9    3    4 ar
    10    4    5 ar
    11    4   32 1
    12    5    6 ar
    13    5   33 1
    14    6   11 ar
    15    6    7 2
    16    7    8 1
    17    7   40 1
    18    8    9 1
    19    8   16 1
    20    8   10 1
    21   10   11 2
    22   10   13 1
    23   11   12 ar
    24   12   34 1
    25   13   14 2
    26   14   15 1
    27   15   16 2
    28   15   17 1
    29   17   18 1
    30   18   19 1
    31   18   35 1
    32   18   36 1
    33   19   20 2
    34   19   21 am
    35   21   22 1
    36   21   37 1
    37   22   26 1
    38   22   23 2
    39   23   24 1
    40   24   25 2
    41   24   38 1
    42   25   26 1
    43   25   39 1
@<TRIPOS>MOLECULE
ZINC55071092
   51    53     0     0     0
SMALL
USER_CHARGES

@<TRIPOS>ATOM
      1 C1         -0.0183    1.5276    0.0132 C.3       1 <0>        -0.1664
      2 C2          0.0022   -0.0022    0.0027 C.3       1 <0>         0.1603
      3 H1          0.5125   -0.3525   -0.8946 H         1 <0>         0.0915
      4 C3         -1.4332   -0.5317    0.0127 C.3       1 <0>        -0.1026
      5 C4         -2.1730   -0.0230   -1.2262 C.3       1 <0>        -0.1498
      6 C5         -1.4126   -2.0615    0.0021 C.3       1 <0>        -0.1472
      7 N1          0.7106   -0.4893    1.1889 N.am      1 <0>        -0.7371
      8 C6          2.0538   -0.5998    1.1737 C.2       1 <0>         0.7092
      9 O1          2.6699   -0.3842    0.1479 O.2       1 <0>        -0.5802
     10 N2          2.7139   -0.9493    2.2955 N.am      1 <0>        -0.6367
     11 C7          1.9832   -1.3263    3.5150 C.3       1 <0>         0.1162
     12 C8          2.5340   -0.5053    4.6859 C.3       1 <0>         0.0406
     13 N3          3.9912   -0.6764    4.7570 N.3       1 <0>        -0.5418
     14 C9          4.6483   -0.1571    3.5502 C.3       1 <0>         0.0304
     15 C10         4.1842   -0.9697    2.3309 C.3       1 <0>         0.1373
     16 C11         4.5369   -0.0455    5.9663 C.3       1 <0>         0.0741
     17 C12         5.9799   -0.4460    6.1343 C.2       1 <0>         0.1946
     18 C13         6.9833    0.4962    6.0546 C.2       1 <0>        -0.2188
     19 C14         8.3134    0.1064    6.2133 C.2       1 <0>         0.5263
     20 O2          9.2060    0.9366    6.1441 O.2       1 <0>        -0.4333
     21 N4          8.6161   -1.2055    6.4467 N.am      1 <0>        -0.4326
     22 C15         9.8693   -1.7411    6.6238 C.2       1 <0>         0.0377
     23 C16        10.0353   -3.0447    6.8459 C.2       1 <0>        -0.1384
     24 S1          8.3508   -3.6376    6.8202 S.3       1 <0>         0.3126
     25 C17         7.5591   -2.0739    6.5106 C.cat     1 <0>         0.3120
     26 N5          6.3078   -1.7142    6.3676 N.pl3     1 <0>        -0.4730
     27 H2          1.0043    1.9048    0.0061 H         1 <0>         0.0580
     28 H3         -0.5454    1.8900   -0.8694 H         1 <0>         0.0730
     29 H4         -0.5286    1.8779    0.9104 H         1 <0>         0.0553
     30 H5         -1.9434   -0.1814    0.9099 H         1 <0>         0.0742
     31 H6         -1.6628   -0.3733   -2.1235 H         1 <0>         0.0597
     32 H7         -3.1957   -0.4002   -1.2191 H         1 <0>         0.0622
     33 H8         -2.1877    1.0668   -1.2187 H         1 <0>         0.0624
     34 H9         -0.9024   -2.4118   -0.8951 H         1 <0>         0.0575
     35 H10        -0.8855   -2.4239    0.8847 H         1 <0>         0.0507
     36 H11        -2.4352   -2.4387    0.0092 H         1 <0>         0.0596
     37 H12         0.2130   -0.7322    1.9853 H         1 <0>         0.3931
     38 H13         0.9219   -1.1141    3.3862 H         1 <0>         0.0884
     39 H14         2.1257   -2.3885    3.7136 H         1 <0>         0.0813
     40 H15         2.2983    0.5480    4.5342 H         1 <0>         0.0560
     41 H16         2.0815   -0.8493    5.6159 H         1 <0>         0.0993
     42 H17         4.3832    0.8914    3.4142 H         1 <0>         0.0586
     43 H18         5.7292   -0.2486    3.6566 H         1 <0>         0.0810
     44 H19         4.5341   -1.9983    2.4179 H         1 <0>         0.0724
     45 H20         4.5786   -0.5216    1.4189 H         1 <0>         0.1039
     46 H21         4.4691    1.0384    5.8728 H         1 <0>         0.0998
     47 H22         3.9657   -0.3716    6.8355 H         1 <0>         0.1259
     48 H23         6.7405    1.5321    5.8696 H         1 <0>         0.2043
     49 H24        10.7337   -1.0951    6.5819 H         1 <0>         0.2205
     50 H25        10.9497   -3.5981    7.0005 H         1 <0>         0.2510
     51 H26         5.6089   -2.3839    6.4295 H         1 <0>         0.4666
@<TRIPOS>BOND
     1    1    2 1
     2    1   27 1
     3    1   28 1
     4    1   29 1
     5    2    3 1
     6    2    4 1
     7    2    7 1
     8    4    5 1
     9    4    6 1
    10    4   30 1
    11    5   31 1
    12    5   32 1
    13    5   33 1
    14    6   34 1
    15    6   35 1
    16    6   36 1
    17    7    8 am
    18    7   37 1
    19    8    9 2
    20    8   10 am
    21   10   15 1
    22   10   11 1
    23   11   12 1
    24   11   38 1
    25   11   39 1
    26   12   13 1
    27   12   40 1
    28   12   41 1
    29   13   14 1
    30   13   16 1
    31   14   15 1
    32   14   42 1
    33   14   43 1
    34   15   44 1
    35   15   45 1
    36   16   17 1
    37   16   46 1
    38   16   47 1
    39   17   26 1
    40   17   18 2
    41   18   19 1
    42   18   48 1
    43   19   20 2
    44   19   21 am
    45   21   25 1
    46   21   22 1
    47   22   23 2
    48   22   49 1
    49   23   24 1
    50   23   50 1
    51   24   25 1
    52   25   26 2
    53   26   51 1
@<TRIPOS>MOLECULE
ZINC63944521
   53    56     0     0     0
SMALL
USER_CHARGES

@<TRIPOS>ATOM
      1 C1          0.0824    1.3553   -0.0286 C.3       1 <0>         0.0316
      2 O1          0.0961   -0.0736   -0.0219 O.3       1 <0>        -0.3770
      3 C2         -1.2037   -0.6673   -0.0231 C.3       1 <0>         0.0372
      4 C3         -1.0683   -2.1913   -0.0156 C.3       1 <0>         0.1740
      5 N1         -0.4473   -2.6202    1.2400 N.pl3     1 <0>        -0.5459
      6 C4         -1.1654   -2.9708    2.4766 C.3       1 <0>         0.0817
      7 C5         -0.0297   -3.3404    3.4522 C.3       1 <0>         0.1527
      8 H1         -0.1237   -4.3777    3.7739 H         1 <0>         0.1204
      9 C6          1.2264   -3.1506    2.6322 C.2       1 <0>        -0.0058
     10 N2          0.9204   -2.7699    1.4601 N.2       1 <0>        -0.1912
     11 N3         -0.0329   -2.4422    4.6095 N.am      1 <0>        -0.7296
     12 C7          0.4945   -2.8502    5.7808 C.2       1 <0>         0.7157
     13 O2          0.8886   -3.9938    5.9044 O.2       1 <0>        -0.5665
     14 N4          0.5849   -1.9907    6.8149 N.am      1 <0>        -0.6369
     15 C8          1.2575   -2.3706    8.0690 C.3       1 <0>         0.1276
     16 C9          2.4634   -1.4471    8.2583 C.3       1 <0>        -0.1080
     17 C10         2.0773   -0.0218    7.9943 C.2       1 <0>        -0.1262
     18 C11         0.9980    0.3442    7.3133 C.2       1 <0>        -0.0213
     19 C12         0.0217   -0.6356    6.7330 C.3       1 <0>         0.1199
     20 C13         2.9134    0.9935    8.5019 C.2       1 <0>         0.1237
     21 C14         4.1397    0.8331    9.1344 C.ar      1 <0>        -0.1802
     22 C15         4.9053   -0.3111    9.4584 C.ar      1 <0>        -0.0213
     23 C16         6.0949   -0.1663   10.0924 C.ar      1 <0>        -0.1537
     24 C17         6.5928    1.0940   10.4393 C.ar      1 <0>         0.0429
     25 C18         5.9151    2.2326   10.1610 C.ar      1 <0>        -0.2053
     26 C19         4.6603    2.1636    9.4979 C.ar      1 <0>         0.3115
     27 N5          3.8213    3.1042    9.1215 N.pl3     1 <0>        -0.6065
     28 C20         2.6653    2.4854    8.4655 C.3       1 <0>         0.0654
     29 H2          1.1065    1.7285   -0.0273 H         1 <0>         0.0843
     30 H3         -0.4323    1.7096   -0.9217 H         1 <0>         0.0425
     31 H4         -0.4376    1.7178    0.8582 H         1 <0>         0.0344
     32 H5         -1.7503   -0.3468    0.8638 H         1 <0>         0.0451
     33 H6         -1.7451   -0.3550   -0.9161 H         1 <0>         0.0613
     34 H7         -2.0556   -2.6442   -0.1060 H         1 <0>         0.0971
     35 H8         -0.4465   -2.5049   -0.8542 H         1 <0>         0.0922
     36 H9         -1.7296   -2.1159    2.8493 H         1 <0>         0.0713
     37 H10        -1.8230   -3.8242    2.3108 H         1 <0>         0.0873
     38 H11         2.2322   -3.3173    2.9885 H         1 <0>         0.1867
     39 H12        -0.4145   -1.5537    4.5328 H         1 <0>         0.3937
     40 H13         0.5692   -2.2539    8.9061 H         1 <0>         0.0813
     41 H14         1.5924   -3.4061    8.0083 H         1 <0>         0.1143
     42 H15         2.8300   -1.5378    9.2808 H         1 <0>         0.0991
     43 H16         3.2540   -1.7403    7.5676 H         1 <0>         0.0966
     44 H17         0.8157    1.3987    7.1677 H         1 <0>         0.1410
     45 H18        -0.1706   -0.3834    5.6902 H         1 <0>         0.1107
     46 H19        -0.9103   -0.5938    7.2968 H         1 <0>         0.1137
     47 H20         4.5437   -1.2960    9.2022 H         1 <0>         0.1592
     48 H21         6.6722   -1.0459   10.3361 H         1 <0>         0.1546
     49 H22         7.5453    1.1607   10.9440 H         1 <0>         0.1588
     50 H23         6.3271    3.1905   10.4422 H         1 <0>         0.1576
     51 H24         2.5886    2.8280    7.4336 H         1 <0>         0.1671
     52 H25         1.7531    2.7275    9.0107 H         1 <0>         0.1684
     53 H26         3.9492    4.0567    9.2533 H         1 <0>         0.4523
@<TRIPOS>BOND
     1    1    2 1
     2    1   29 1
     3    1   30 1
     4    1   31 1
     5    2    3 1
     6    3    4 1
     7    3   32 1
     8    3   33 1
     9    4    5 1
    10    4   34 1
    11    4   35 1
    12    5   10 1
    13    5    6 1
    14    6    7 1
    15    6   36 1
    16    6   37 1
    17    7    8 1
    18    7    9 1
    19    7   11 1
    20    9   10 2
    21    9   38 1
    22   11   12 am
    23   11   39 1
    24   12   13 2
    25   12   14 am
    26   14   19 1
    27   14   15 1
    28   15   16 1
    29   15   40 1
    30   15   41 1
    31   16   17 1
    32   16   42 1
    33   16   43 1
    34   17   18 2
    35   17   20 1
    36   18   19 1
    37   18   44 1
    38   19   45 1
    39   19   46 1
    40   20   28 1
    41   20   21 2
    42   21   26 ar
    43   21   22 ar
    44   22   23 ar
    45   22   47 1
    46   23   24 ar
    47   23   48 1
    48   24   25 ar
    49   24   49 1
    50   25   26 ar
    51   25   50 1
    52   26   27 2
    53   27   28 1
    54   27   53 1
    55   28   51 1
    56   28   52 1
@<TRIPOS>MOLECULE
ZINC66760689
   49    53     0     0     0
SMALL
USER_CHARGES

@<TRIPOS>ATOM
      1 C1         -0.0168    1.3910    0.0097 C.ar      1 <0>        -0.0714
      2 C2          1.1683    2.0960    0.0022 C.ar      1 <0>        -0.1164
      3 C3          2.3827    1.4231   -0.0123 C.ar      1 <0>         0.0778
      4 C4          2.4082    0.0314   -0.0175 C.ar      1 <0>         0.0620
      5 C5          1.2221   -0.6814   -0.0118 C.ar      1 <0>        -0.0866
      6 C6          0.0021   -0.0041    0.0020 C.ar      1 <0>        -0.0155
      7 C7         -1.2670   -0.7627    0.0090 C.2       1 <0>         0.1134
      8 N1         -2.5080   -0.3105    0.0169 N.2       1 <0>        -0.4710
      9 C8         -3.5008   -1.1901    0.0214 C.2       1 <0>        -0.0255
     10 C9         -3.2056   -2.5273    0.0177 C.2       1 <0>        -0.1937
     11 S1         -1.5226   -2.5284    0.0011 S.3       1 <0>         0.2098
     12 C10        -4.9016   -0.7348    0.0306 C.2       1 <0>         0.6009
     13 O1         -5.8056   -1.5485    0.0351 O.2       1 <0>        -0.5138
     14 N2         -5.1817    0.5836    0.0341 N.am      1 <0>        -0.7243
     15 C11        -6.5749    1.0364    0.0433 C.3       1 <0>         0.1307
     16 H1         -7.2012    0.3524   -0.5293 H         1 <0>         0.1301
     17 C12        -7.0952    1.1598    1.4969 C.3       1 <0>        -0.1413
     18 C13        -8.2584    2.1732    1.3588 C.3       1 <0>        -0.1262
     19 C14        -7.7511    3.1917    0.3171 C.3       1 <0>        -0.1341
     20 C15        -6.6812    2.4676   -0.5226 C.3       1 <0>         0.1130
     21 H2         -6.9843    2.4339   -1.5690 H         1 <0>         0.1402
     22 N3         -5.3937    3.1548   -0.3944 N.pl3     1 <0>        -0.4052
     23 C16        -4.7173    3.4020    0.7697 C.2       1 <0>         0.0178
     24 C17        -3.5865    4.0513    0.4329 C.2       1 <0>         0.0115
     25 N4         -3.5728    4.1965   -0.9004 N.pl3     1 <0>        -0.4739
     26 C18        -4.6498    3.6575   -1.4031 C.cat     1 <0>         0.2920
     27 O2          3.5905   -0.6434   -0.0237 O.3       1 <0>        -0.3012
     28 C19         4.7536    0.0995   -0.4047 C.3       1 <0>         0.0188
     29 C20         4.7338    1.4397    0.3427 C.3       1 <0>         0.0178
     30 O3          3.5398    2.1395   -0.0233 O.3       1 <0>        -0.3019
     31 H3         -0.9591    1.9185    0.0260 H         1 <0>         0.1336
     32 H4          1.1518    3.1759    0.0071 H         1 <0>         0.1430
     33 H5          1.2406   -1.7612   -0.0184 H         1 <0>         0.1424
     34 H6         -3.8823   -3.3690    0.0208 H         1 <0>         0.2132
     35 H7         -4.4608    1.2326    0.0304 H         1 <0>         0.3999
     36 H8         -7.4609    0.1990    1.8591 H         1 <0>         0.0937
     37 H9         -6.3181    1.5510    2.1535 H         1 <0>         0.0743
     38 H10        -9.1580    1.6745    0.9980 H         1 <0>         0.0867
     39 H11        -8.4505    2.6658    2.3119 H         1 <0>         0.0878
     40 H12        -8.5729    3.5112   -0.3237 H         1 <0>         0.1021
     41 H13        -7.3128    4.0535    0.8204 H         1 <0>         0.0869
     42 H14        -5.0305    3.1292    1.7666 H         1 <0>         0.2199
     43 H15        -2.8243    4.3948    1.1166 H         1 <0>         0.2260
     44 H16        -4.9050    3.6217   -2.4519 H         1 <0>         0.2602
     45 H17         5.6505   -0.4583   -0.1356 H         1 <0>         0.1311
     46 H18         4.7398    0.2780   -1.4799 H         1 <0>         0.0837
     47 H19         4.7402    1.2610    1.4179 H         1 <0>         0.0848
     48 H20         5.6063    2.0298    0.0624 H         1 <0>         0.1307
     49 H21        -2.8713    4.6305   -1.4107 H         1 <0>         0.4661
@<TRIPOS>BOND
     1    1    6 ar
     2    1    2 ar
     3    1   31 1
     4    2    3 ar
     5    2   32 1
     6    3   30 1
     7    3    4 ar
     8    4    5 ar
     9    4   27 1
    10    5    6 ar
    11    5   33 1
    12    6    7 1
    13    7   11 1
    14    7    8 2
    15    8    9 1
    16    9   10 2
    17    9   12 1
    18   10   11 1
    19   10   34 1
    20   12   13 2
    21   12   14 am
    22   14   15 1
    23   14   35 1
    24   15   16 1
    25   15   20 1
    26   15   17 1
    27   17   18 1
    28   17   36 1
    29   17   37 1
    30   18   19 1
    31   18   38 1
    32   18   39 1
    33   19   20 1
    34   19   40 1
    35   19   41 1
    36   20   21 1
    37   20   22 1
    38   22   26 1
    39   22   23 1
    40   23   24 2
    41   23   42 1
    42   24   25 1
    43   24   43 1
    44   25   26 2
    45   25   49 1
    46   26   44 1
    47   27   28 1
    48   28   29 1
    49   28   45 1
    50   28   46 1
    51   29   30 1
    52   29   47 1
    53   29   48 1
@<TRIPOS>MOLECULE
ZINC23402538
   47    50     0     0     0
SMALL
USER_CHARGES
isopropyl-(2-nitrophenyl)BLAHol
@<TRIPOS>ATOM
      1 C1         -1.1182    6.6995   -8.0976 C.3       1 <0>        -0.1878
      2 C2          0.2600    7.1755   -7.6339 C.3       1 <0>         0.0329
      3 C3          0.3025    8.7048   -7.6470 C.3       1 <0>        -0.1868
      4 N1          0.5125    6.6903   -6.2705 N.4       1 <0>        -0.3989
      5 C4          0.5379    5.2214   -6.2304 C.3       1 <0>        -0.0042
      6 C5          1.1630    4.7410   -4.9179 C.3       1 <0>        -0.0847
      7 C6          0.4500    5.4407   -3.7661 C.2       1 <0>        -0.0021
      8 C7         -0.2841    6.5546   -4.0028 C.2       1 <0>        -0.3125
      9 S1         -0.9215    7.0245   -2.4176 S.3       1 <0>         0.2279
     10 C8         -0.2275    5.7782   -1.4721 C.2       1 <0>         0.1600
     11 C9          0.4912    4.9965   -2.3861 C.2       1 <0>        -0.2592
     12 C10         1.2075    3.8103   -1.8506 C.2       1 <0>         0.4711
     13 N2          0.9637    3.4575   -0.6188 N.2       1 <0>        -0.6338
     14 C11        -0.0338    4.0800    0.2424 C.3       1 <0>         0.3854
     15 H1          0.3732    4.0667    1.2642 H         1 <0>         0.1452
     16 N3         -0.2744    5.4862   -0.1303 N.pl3     1 <0>        -0.7025
     17 C12        -1.3267    3.3138    0.1307 C.ar      1 <0>        -0.0685
     18 C13        -2.5335    3.9883    0.1454 C.ar      1 <0>        -0.1029
     19 C14        -3.7192    3.2856    0.0425 C.ar      1 <0>        -0.0756
     20 C15        -3.6985    1.9082   -0.0752 C.ar      1 <0>        -0.1037
     21 C16        -2.4919    1.2344   -0.0953 C.ar      1 <0>        -0.0641
     22 C17        -1.3060    1.9369    0.0130 C.ar      1 <0>        -0.0094
     23 N4         -0.0140    1.2148   -0.0033 N.pl3     1 <0>         0.0294
     24 O1          0.1523    0.2812   -0.7676 O.2       1 <0>        -0.1899
     25 O2          0.8846    1.5574    0.7442 O.3       1 <0>        -0.0871
     26 O3          2.0834    3.1185   -2.6155 O.3       1 <0>        -0.4916
     27 C18        -0.4901    7.2199   -5.3268 C.3       1 <0>         0.1035
     28 H2         -1.1487    5.6000   -8.0881 H         1 <0>         0.0812
     29 H3         -1.3072    7.0628   -9.1185 H         1 <0>         0.1062
     30 H4         -1.8895    7.0935   -7.4195 H         1 <0>         0.0811
     31 H5          1.0487    6.7618   -8.2795 H         1 <0>         0.1389
     32 H6          1.2934    9.0469   -7.3136 H         1 <0>         0.0831
     33 H7         -0.4688    9.0988   -6.9689 H         1 <0>         0.0818
     34 H8          0.1135    9.0681   -8.6679 H         1 <0>         0.1076
     35 H9         -0.4893    4.8348   -6.3035 H         1 <0>         0.1288
     36 H10         1.1334    4.8418   -7.0738 H         1 <0>         0.1385
     37 H11         1.0416    3.6512   -4.8313 H         1 <0>         0.1286
     38 H12         2.2338    4.9925   -4.9081 H         1 <0>         0.1100
     39 H13        -0.4774    6.2349    0.6496 H         1 <0>         0.4541
     40 H14        -2.5497    5.0643    0.2371 H         1 <0>         0.1404
     41 H15        -4.6619    3.8125    0.0537 H         1 <0>         0.1458
     42 H16        -4.6250    1.3592   -0.1560 H         1 <0>         0.1508
     43 H17        -2.4756    0.1589   -0.1916 H         1 <0>         0.1506
     44 H18         2.6038    2.2428   -2.2005 H         1 <0>         0.4590
     45 H19        -0.3611    8.3078   -5.2271 H         1 <0>         0.1402
     46 H20        -1.5001    7.0036   -5.7052 H         1 <0>         0.1376
     47 H21         1.5037    7.0563   -5.9645 H         1 <0>         0.4453
@<TRIPOS>BOND
     1    1    2 1
     2    1   28 1
     3    1   29 1
     4    1   30 1
     5    2    3 1
     6    2    4 1
     7    2   31 1
     8    3   32 1
     9    3   33 1
    10    3   34 1
    11    4   27 1
    12    4    5 1
    13    4   47 1
    14    5    6 1
    15    5   35 1
    16    5   36 1
    17    6    7 1
    18    6   37 1
    19    6   38 1
    20    7   11 1
    21    7    8 2
    22    8    9 1
    23    8   27 1
    24    9   10 1
    25   10   16 1
    26   10   11 2
    27   11   12 1
    28   12   13 2
    29   12   26 1
    30   13   14 1
    31   14   15 1
    32   14   16 1
    33   14   17 1
    34   16   39 1
    35   17   22 ar
    36   17   18 ar
    37   18   19 ar
    38   18   40 1
    39   19   20 ar
    40   19   41 1
    41   20   21 ar
    42   20   42 1
    43   21   22 ar
    44   21   43 1
    45   22   23 1
    46   23   24 2
    47   23   25 1
    48   26   44 1
    49   27   45 1
    50   27   46 1
@<TRIPOS>MOLECULE
ZINC39672059
   63    67     0     0     0
SMALL
USER_CHARGES

@<TRIPOS>ATOM
      1 C1          7.5179    0.3130   -3.8201 C.2       1 <0>        -0.0952
      2 C2          7.8676   -0.7924   -4.6132 C.2       1 <0>        -0.1291
      3 C3          7.2714   -1.9870   -4.4169 C.2       1 <0>         0.0461
      4 N1          6.3221   -2.1392   -3.4481 N.pl3     1 <0>        -0.3598
      5 C4          5.5751   -3.2122   -3.0445 C.2       1 <0>        -0.0827
      6 C5          4.7851   -2.7906   -2.0328 C.2       1 <0>         0.0338
      7 N2          5.0300   -1.4969   -1.8112 N.2       1 <0>        -0.4776
      8 C6          5.9599   -1.0788   -2.6584 C.2       1 <0>         0.2313
      9 C7          6.5737    0.1751   -2.8508 C.2       1 <0>        -0.0796
     10 C8          3.7926   -3.6389   -1.2803 C.3       1 <0>         0.2037
     11 N3          4.4193   -4.1596   -0.0628 N.am      1 <0>        -0.7230
     12 C9          3.7157   -4.9494    0.7725 C.2       1 <0>         0.5143
     13 O1          2.5637   -5.2289    0.5163 O.2       1 <0>        -0.5111
     14 C10         4.3604   -5.4851    2.0248 C.3       1 <0>        -0.1132
     15 H1          5.1302   -4.7989    2.3779 H         1 <0>         0.1159
     16 C11         3.2971   -5.7115    3.1228 C.3       1 <0>         0.1185
     17 N4          2.9297   -7.1419    2.9988 N.am      1 <0>        -0.6193
     18 C12         4.2130   -7.8290    2.7176 C.3       1 <0>         0.1030
     19 C13         4.9618   -6.8764    1.7644 C.3       1 <0>        -0.0723
     20 C14         6.4538   -6.8753    2.0832 C.3       1 <0>        -0.1348
     21 C15         7.0410   -8.2523    1.7610 C.3       1 <0>        -0.0096
     22 N5          6.8236   -8.5594    0.3422 N.4       1 <0>        -0.5050
     23 C16         5.3851   -8.6504    0.0644 C.3       1 <0>        -0.0089
     24 C17         4.7278   -7.2902    0.3147 C.3       1 <0>        -0.1485
     25 C18         1.7056   -7.6935    3.1158 C.2       1 <0>         0.5417
     26 O2          0.7337   -6.9851    3.2727 O.2       1 <0>        -0.5093
     27 C19         1.5445   -9.1905    3.0518 C.3       1 <0>        -0.0957
     28 H2          2.2730   -9.6080    2.3567 H         1 <0>         0.0846
     29 C20         0.1261   -9.5368    2.5816 C.3       1 <0>        -0.1051
     30 C21         0.0467  -11.0480    2.3549 C.3       1 <0>        -0.0934
     31 C22         0.5934  -11.7788    3.5463 C.2       1 <0>        -0.1484
     32 C23         1.3390  -11.2328    4.4526 C.2       1 <0>        -0.1618
     33 C24         1.7581   -9.7908    4.4430 C.3       1 <0>        -0.0767
     34 H3          7.9998    1.2669   -3.9763 H         1 <0>         0.1488
     35 H4          8.6167   -0.6857   -5.3838 H         1 <0>         0.1562
     36 H5          7.5477   -2.8305   -5.0323 H         1 <0>         0.1653
     37 H6          5.6100   -4.2094   -3.4577 H         1 <0>         0.1811
     38 H7          6.2971    1.0181   -2.2348 H         1 <0>         0.1554
     39 H8          2.9265   -3.0336   -1.0127 H         1 <0>         0.0899
     40 H9          3.4745   -4.4702   -1.9094 H         1 <0>         0.0862
     41 H10         5.3407   -3.9361    0.1421 H         1 <0>         0.4002
     42 H11         3.7191   -5.5115    4.1076 H         1 <0>         0.0866
     43 H12         2.4272   -5.0791    2.9455 H         1 <0>         0.1010
     44 H13         4.7800   -7.9677    3.6381 H         1 <0>         0.0865
     45 H14         4.0325   -8.7884    2.2326 H         1 <0>         0.0835
     46 H15         6.9539   -6.1166    1.4813 H         1 <0>         0.0971
     47 H16         6.5997   -6.6560    3.1409 H         1 <0>         0.1226
     48 H17         8.1104   -8.2495    1.9722 H         1 <0>         0.1398
     49 H18         6.5519   -9.0084    2.3753 H         1 <0>         0.1331
     50 H19         7.2287   -7.8295   -0.2245 H         1 <0>         0.4278
     51 H20         5.2337   -8.9410   -0.9752 H         1 <0>         0.1385
     52 H21         4.9354   -9.3970    0.7190 H         1 <0>         0.1325
     53 H22         3.6569   -7.3633    0.1255 H         1 <0>         0.1247
     54 H23         5.1656   -6.5465   -0.3511 H         1 <0>         0.0966
     55 H24        -0.5949   -9.2423    3.3443 H         1 <0>         0.0796
     56 H25        -0.0886   -9.0147    1.6492 H         1 <0>         0.0723
     57 H26        -0.9931  -11.3361    2.2002 H         1 <0>         0.0816
     58 H27         0.6279  -11.3119    1.4713 H         1 <0>         0.0731
     59 H28         0.3491  -12.8252    3.6544 H         1 <0>         0.1082
     60 H29         1.6849  -11.8540    5.2655 H         1 <0>         0.1096
     61 H30         2.8119   -9.7153    4.7112 H         1 <0>         0.0727
     62 H31         1.1620   -9.2393    5.1700 H         1 <0>         0.0827
     63 H32         7.2643   -9.4390    0.1184 H         1 <0>         0.4338
@<TRIPOS>BOND
     1    1    9 2
     2    1    2 1
     3    1   34 1
     4    2    3 2
     5    2   35 1
     6    3    4 1
     7    3   36 1
     8    4    8 1
     9    4    5 1
    10    5    6 2
    11    5   37 1
    12    6    7 1
    13    6   10 1
    14    7    8 2
    15    8    9 1
    16    9   38 1
    17   10   11 1
    18   10   39 1
    19   10   40 1
    20   11   12 am
    21   11   41 1
    22   12   13 2
    23   12   14 1
    24   14   15 1
    25   14   19 1
    26   14   16 1
    27   16   17 1
    28   16   42 1
    29   16   43 1
    30   17   18 1
    31   17   25 am
    32   18   19 1
    33   18   44 1
    34   18   45 1
    35   19   24 1
    36   19   20 1
    37   20   21 1
    38   20   46 1
    39   20   47 1
    40   21   22 1
    41   21   48 1
    42   21   49 1
    43   22   23 1
    44   22   50 1
    45   22   63 1
    46   23   24 1
    47   23   51 1
    48   23   52 1
    49   24   53 1
    50   24   54 1
    51   25   26 2
    52   25   27 1
    53   27   28 1
    54   27   33 1
    55   27   29 1
    56   29   30 1
    57   29   55 1
    58   29   56 1
    59   30   31 1
    60   30   57 1
    61   30   58 1
    62   31   32 2
    63   31   59 1
    64   32   33 1
    65   32   60 1
    66   33   61 1
    67   33   62 1
@<TRIPOS>MOLECULE
ZINC35664998
   54    57     0     0     0
SMALL
USER_CHARGES

@<TRIPOS>ATOM
      1 C1          0.8185    0.7538    0.8675 C.3       1 <0>        -0.1710
      2 C2          0.6603   -0.7615    1.0079 C.3       1 <0>         0.1127
      3 N1         -0.7303   -1.1345    0.7369 N.pl3     1 <0>        -0.6755
      4 C3         -1.1062   -2.4271    0.8021 C.2       1 <0>         0.5556
      5 S1          0.0640   -3.6461    1.0768 S.2       1 <0>        -0.6010
      6 N2         -2.4035   -2.7600    0.6511 N.pl3     1 <0>        -0.5889
      7 C4         -3.4007   -1.7418    0.2941 C.3       1 <0>         0.0962
      8 C5         -4.1584   -2.2101   -0.9527 C.3       1 <0>        -0.1575
      9 C6         -4.7326   -3.6035   -0.7032 C.3       1 <0>         0.2872
     10 C7         -3.6091   -4.5964   -0.4114 C.3       1 <0>        -0.1707
     11 C8         -2.8457   -4.1492    0.8344 C.3       1 <0>         0.0622
     12 N3         -5.4965   -4.0480   -1.8880 N.4       1 <0>        -0.5144
     13 C9         -6.8800   -3.6129   -1.5786 C.3       1 <0>         0.0010
     14 H1         -7.0686   -2.6233   -1.9949 H         1 <0>         0.1785
     15 C10        -6.9421   -3.5693   -0.0672 C.2       1 <0>         0.5157
     16 O1         -7.9546   -3.5398    0.5999 O.2       1 <0>        -0.4346
     17 N4         -5.6812   -3.5685    0.4132 N.am      1 <0>        -0.6125
     18 C11        -5.3168   -3.5377    1.8318 C.3       1 <0>         0.1516
     19 C12        -5.4912   -4.9120    2.4251 C.ar      1 <0>        -0.1313
     20 C13        -6.5113   -5.1492    3.3277 C.ar      1 <0>        -0.0718
     21 C14        -6.6757   -6.4082    3.8743 C.ar      1 <0>        -0.0973
     22 C15        -5.8173   -7.4359    3.5188 C.ar      1 <0>         0.0557
     23 C16        -4.7897   -7.1970    2.6096 C.ar      1 <0>         0.0382
     24 C17        -4.6345   -5.9341    2.0614 C.ar      1 <0>        -0.1211
     25 O2         -4.0912   -8.3553    2.4264 O.3       1 <0>        -0.3045
     26 C18        -4.4466   -9.1985    3.5382 C.3       1 <0>         0.2117
     27 O3         -5.7627   -8.7440    3.9051 O.3       1 <0>        -0.3020
     28 C19        -7.8910   -4.6219   -2.1269 C.3       1 <0>        -0.1716
     29 H2          1.8531    1.0313    1.0692 H         1 <0>         0.0892
     30 H3          0.5525    1.0546   -0.1458 H         1 <0>         0.0627
     31 H4          0.1625    1.2551    1.5793 H         1 <0>         0.0634
     32 H5          1.3162   -1.2628    0.2962 H         1 <0>         0.0943
     33 H6          0.9262   -1.0623    2.0213 H         1 <0>         0.0918
     34 H7         -1.3804   -0.4511    0.5105 H         1 <0>         0.3950
     35 H8         -4.1007   -1.6106    1.1193 H         1 <0>         0.0992
     36 H9         -2.8993   -0.7971    0.0837 H         1 <0>         0.1054
     37 H10        -4.9704   -1.5153   -1.1672 H         1 <0>         0.1134
     38 H11        -3.4754   -2.2449   -1.8015 H         1 <0>         0.1141
     39 H12        -4.0332   -5.5864   -0.2436 H         1 <0>         0.1206
     40 H13        -2.9260   -4.6323   -1.2601 H         1 <0>         0.1199
     41 H14        -1.9782   -4.7927    0.9803 H         1 <0>         0.1554
     42 H15        -3.5007   -4.2125    1.7033 H         1 <0>         0.1249
     43 H16        -5.1577   -3.5923   -2.7220 H         1 <0>         0.4478
     44 H17        -4.2767   -3.2276    1.9331 H         1 <0>         0.1287
     45 H18        -5.9595   -2.8310    2.3568 H         1 <0>         0.1143
     46 H19        -7.1810   -4.3490    3.6065 H         1 <0>         0.1441
     47 H20        -7.4735   -6.5906    4.5791 H         1 <0>         0.1450
     48 H21        -3.8413   -5.7470    1.3528 H         1 <0>         0.1484
     49 H22        -4.4741  -10.2443    3.2323 H         1 <0>         0.1404
     50 H23        -3.7489   -9.0581    4.3638 H         1 <0>         0.0945
     51 H24        -7.7151   -5.5965   -1.6716 H         1 <0>         0.0871
     52 H25        -8.9016   -4.2881   -1.8916 H         1 <0>         0.1205
     53 H26        -7.7767   -4.6999   -3.2081 H         1 <0>         0.0986
     54 H27        -5.4518   -5.0513   -1.9850 H         1 <0>         0.4404
@<TRIPOS>BOND
     1    1    2 1
     2    1   29 1
     3    1   30 1
     4    1   31 1
     5    2    3 1
     6    2   32 1
     7    2   33 1
     8    3    4 1
     9    3   34 1
    10    4    5 2
    11    4    6 1
    12    6   11 1
    13    6    7 1
    14    7    8 1
    15    7   35 1
    16    7   36 1
    17    8    9 1
    18    8   37 1
    19    8   38 1
    20    9   17 1
    21    9   10 1
    22    9   12 1
    23   10   11 1
    24   10   39 1
    25   10   40 1
    26   11   41 1
    27   11   42 1
    28   12   13 1
    29   12   43 1
    30   12   54 1
    31   13   14 1
    32   13   15 1
    33   13   28 1
    34   15   16 2
    35   15   17 am
    36   17   18 1
    37   18   19 1
    38   18   44 1
    39   18   45 1
    40   19   24 ar
    41   19   20 ar
    42   20   21 ar
    43   20   46 1
    44   21   22 ar
    45   21   47 1
    46   22   27 1
    47   22   23 ar
    48   23   24 ar
    49   23   25 1
    50   24   48 1
    51   25   26 1
    52   26   27 1
    53   26   49 1
    54   26   50 1
    55   28   51 1
    56   28   52 1
    57   28   53 1
@<TRIPOS>MOLECULE
ZINC64121053
   45    48     0     0     0
SMALL
USER_CHARGES

@<TRIPOS>ATOM
      1 C1         -0.0163    1.3482    0.0095 C.ar      1 <0>        -0.1492
      2 C2          1.1658    2.1014    0.0022 C.ar      1 <0>         0.0545
      3 C3          2.3912    1.5352   -0.0125 C.ar      1 <0>        -0.2093
      4 C4          2.5288    0.1198   -0.0218 C.ar      1 <0>         0.3277
      5 N1          3.5868   -0.6543   -0.0369 N.pl3     1 <0>        -0.5839
      6 C5          3.1432   -2.0528   -0.0408 C.3       1 <0>         0.0599
      7 C6          1.6315   -2.0084   -0.0255 C.2       1 <0>         0.0692
      8 C7          1.2951   -0.6984   -0.0144 C.ar      1 <0>        -0.1662
      9 C8          0.0021   -0.0041    0.0020 C.ar      1 <0>        -0.0138
     10 C9          0.6905   -3.1856   -0.0239 C.3       1 <0>        -0.1051
     11 C10         0.4565   -3.6534   -1.4617 C.3       1 <0>         0.1264
     12 N2         -0.4583   -4.7977   -1.4602 N.am      1 <0>        -0.7316
     13 C11        -0.8107   -5.3803   -2.6233 C.2       1 <0>         0.5018
     14 O1         -0.3706   -4.9572   -3.6712 O.2       1 <0>        -0.5201
     15 C12        -1.7517   -6.5574   -2.6217 C.3       1 <0>         0.1270
     16 N3         -1.9758   -7.0053   -3.9984 N.am      1 <0>        -0.6281
     17 C13        -3.0345   -6.5217   -4.9027 C.3       1 <0>         0.3492
     18 H1         -3.0966   -5.4338   -4.8753 H         1 <0>         0.1324
     19 N4         -2.5792   -6.9874   -6.2370 N.3       1 <0>        -0.4194
     20 O2         -1.7241   -8.1395   -5.8978 O.3       1 <0>        -0.1622
     21 C14        -1.2464   -7.9256   -4.6575 C.2       1 <0>         0.6293
     22 O3         -0.2793   -8.4938   -4.1902 O.2       1 <0>        -0.4950
     23 C15        -4.3624   -7.1378   -4.5447 C.2       1 <0>        -0.1887
     24 C16        -5.4120   -7.4316   -5.3505 C.2       1 <0>        -0.0996
     25 C17        -6.5431   -8.0014   -4.7969 C.2       1 <0>        -0.1621
     26 C18        -6.5694   -8.2496   -3.4646 C.2       1 <0>        -0.1508
     27 S1         -4.9582   -7.6774   -2.9506 S.3       1 <0>         0.0484
     28 H2         -0.9665    1.8612    0.0259 H         1 <0>         0.1584
     29 H3          1.0933    3.1789    0.0083 H         1 <0>         0.1615
     30 H4          3.2717    2.1606   -0.0175 H         1 <0>         0.1611
     31 H5          3.4952   -2.5561   -0.9413 H         1 <0>         0.1749
     32 H6          3.5129   -2.5667    0.8465 H         1 <0>         0.1757
     33 H7         -0.9210   -0.5647    0.0081 H         1 <0>         0.1606
     34 H8          1.1268   -3.9987    0.5563 H         1 <0>         0.1205
     35 H9         -0.2596   -2.8905    0.4214 H         1 <0>         0.1174
     36 H10         0.0203   -2.8403   -2.0419 H         1 <0>         0.0802
     37 H11         1.4067   -3.9484   -1.9070 H         1 <0>         0.0792
     38 H12        -0.8103   -5.1361   -0.6220 H         1 <0>         0.4095
     39 H13        -1.3155   -7.3705   -2.0415 H         1 <0>         0.1294
     40 H14        -2.7019   -6.2623   -2.1764 H         1 <0>         0.1218
     41 H15        -2.0492   -6.2701   -6.7089 H         1 <0>         0.3744
     42 H16        -5.3653   -7.2233   -6.4092 H         1 <0>         0.1439
     43 H17        -7.3935   -8.2450   -5.4165 H         1 <0>         0.1424
     44 H18        -7.3585   -8.6843   -2.8691 H         1 <0>         0.1918
     45 H19         4.5087   -0.3528   -0.0446 H         1 <0>         0.4566
@<TRIPOS>BOND
     1    1    9 ar
     2    1    2 ar
     3    1   28 1
     4    2    3 ar
     5    2   29 1
     6    3    4 ar
     7    3   30 1
     8    4    8 ar
     9    4    5 2
    10    5    6 1
    11    5   45 1
    12    6    7 1
    13    6   31 1
    14    6   32 1
    15    7    8 2
    16    7   10 1
    17    8    9 ar
    18    9   33 1
    19   10   11 1
    20   10   34 1
    21   10   35 1
    22   11   12 1
    23   11   36 1
    24   11   37 1
    25   12   13 am
    26   12   38 1
    27   13   14 2
    28   13   15 1
    29   15   16 1
    30   15   39 1
    31   15   40 1
    32   16   21 am
    33   16   17 1
    34   17   18 1
    35   17   19 1
    36   17   23 1
    37   19   20 1
    38   19   41 1
    39   20   21 1
    40   21   22 2
    41   23   27 1
    42   23   24 2
    43   24   25 1
    44   24   42 1
    45   25   26 2
    46   25   43 1
    47   26   27 1
    48   26   44 1
@<TRIPOS>MOLECULE
ZINC66894432
   58    60     0     0     0
SMALL
USER_CHARGES

@<TRIPOS>ATOM
      1 C1         -0.0187    1.5258    0.0104 C.3       1 <0>        -0.1762
      2 C2          0.0021   -0.0041    0.0020 C.3       1 <0>         0.1102
      3 H1         -1.0205   -0.3814    0.0098 H         1 <0>         0.1623
      4 C3          0.7074   -0.4901   -1.2379 C.ar      1 <0>         0.3938
      5 N1          2.0246   -0.4169   -1.3182 N.ar      1 <0>        -0.6526
      6 C4          2.6512   -0.8455   -2.4114 C.ar      1 <0>         0.6465
      7 N2          1.9508   -1.3475   -3.4228 N.ar      1 <0>        -0.6373
      8 C5          0.6270   -1.4193   -3.3383 C.ar      1 <0>         0.6359
      9 N3          0.0078   -0.9932   -2.2395 N.ar      1 <0>        -0.6135
     10 N4         -0.1050   -1.9394   -4.3862 N.pl3     1 <0>        -0.5649
     11 C6          0.5778   -2.4127   -5.5928 C.3       1 <0>         0.0904
     12 C7         -1.5648   -2.0182   -4.2920 C.3       1 <0>         0.0974
     13 N5          4.0265   -0.7683   -2.4946 N.pl3     1 <0>        -0.7955
     14 N6          0.7126   -0.4907    1.1921 N.4       1 <0>        -0.3741
     15 C8          0.7394   -1.9582    1.1781 C.3       1 <0>        -0.0033
     16 C9          1.5480   -2.4687    2.3727 C.3       1 <0>        -0.1401
     17 C10         0.8958   -1.9809    3.6696 C.3       1 <0>        -0.1340
     18 C11         0.8055   -0.4524    3.6405 C.3       1 <0>        -0.0995
     19 H2          1.8094   -0.0291    3.6061 H         1 <0>         0.0972
     20 C12         0.0245   -0.0166    2.3989 C.3       1 <0>        -0.0094
     21 C13         0.0858    0.0409    4.8972 C.3       1 <0>        -0.0590
     22 C14         0.9153   -0.2860    6.1122 C.ar      1 <0>        -0.1268
     23 C15         0.6735   -1.4459    6.8228 C.ar      1 <0>        -0.0771
     24 C16         1.4338   -1.7461    7.9377 C.ar      1 <0>        -0.1526
     25 C17         2.4382   -0.8870    8.3443 C.ar      1 <0>        -0.0736
     26 C18         2.6841    0.2737    7.6371 C.ar      1 <0>        -0.2046
     27 C19         1.9259    0.5746    6.5147 C.ar      1 <0>         0.1312
     28 O1          2.1697    1.7132    5.8139 O.3       1 <0>        -0.3189
     29 C20         3.2257    2.5522    6.2861 C.3       1 <0>         0.0244
     30 H3          1.0039    1.9031    0.0027 H         1 <0>         0.0896
     31 H4         -0.5459    1.8868   -0.8726 H         1 <0>         0.1075
     32 H5         -0.5289    1.8773    0.9072 H         1 <0>         0.0975
     33 H6          0.8244   -3.4685   -5.4803 H         1 <0>         0.0642
     34 H7         -0.0761   -2.2822   -6.4551 H         1 <0>         0.0822
     35 H8          1.4931   -1.8396   -5.7409 H         1 <0>         0.0857
     36 H9         -1.9747   -1.0174   -4.1556 H         1 <0>         0.0689
     37 H10        -1.9651   -2.4530   -5.2078 H         1 <0>         0.0873
     38 H11        -1.8409   -2.6428   -3.4424 H         1 <0>         0.0678
     39 H12         4.5372   -0.4015   -1.7560 H         1 <0>         0.4217
     40 H13         4.4825   -1.0809   -3.2916 H         1 <0>         0.4249
     41 H14        -0.2795   -2.3404    1.2397 H         1 <0>         0.1297
     42 H15         1.2010   -2.3039    0.2532 H         1 <0>         0.1154
     43 H16         1.5652   -3.5585    2.3616 H         1 <0>         0.1103
     44 H17         2.5673   -2.0873    2.3121 H         1 <0>         0.0866
     45 H18        -0.1053   -2.4035    3.7555 H         1 <0>         0.0830
     46 H19         1.4993   -2.2942    4.5214 H         1 <0>         0.0969
     47 H20        -0.0418    1.0711    2.3751 H         1 <0>         0.1367
     48 H21        -0.9792   -0.4402    2.4344 H         1 <0>         0.1325
     49 H22        -0.0570    1.1197    4.8343 H         1 <0>         0.0871
     50 H23        -0.8842   -0.4499    4.9767 H         1 <0>         0.0823
     51 H24        -0.1104   -2.1185    6.5072 H         1 <0>         0.1293
     52 H25         1.2427   -2.6530    8.4922 H         1 <0>         0.1275
     53 H26         3.0305   -1.1235    9.2159 H         1 <0>         0.1283
     54 H27         3.4686    0.9444    7.9551 H         1 <0>         0.1306
     55 H28         3.0053    2.8759    7.3034 H         1 <0>         0.0593
     56 H29         4.1632    1.9962    6.2769 H         1 <0>         0.0573
     57 H30         3.3142    3.4244    5.6384 H         1 <0>         0.1031
     58 H31         1.6582   -0.1389    1.1853 H         1 <0>         0.4300
@<TRIPOS>BOND
     1    1    2 1
     2    1   30 1
     3    1   31 1
     4    1   32 1
     5    2    3 1
     6    2    4 1
     7    2   14 1
     8    4    9 ar
     9    4    5 ar
    10    5    6 ar
    11    6    7 ar
    12    6   13 1
    13    7    8 ar
    14    8    9 ar
    15    8   10 1
    16   10   11 1
    17   10   12 1
    18   11   33 1
    19   11   34 1
    20   11   35 1
    21   12   36 1
    22   12   37 1
    23   12   38 1
    24   13   39 1
    25   13   40 1
    26   14   20 1
    27   14   15 1
    28   14   58 1
    29   15   16 1
    30   15   41 1
    31   15   42 1
    32   16   17 1
    33   16   43 1
    34   16   44 1
    35   17   18 1
    36   17   45 1
    37   17   46 1
    38   18   19 1
    39   18   20 1
    40   18   21 1
    41   20   47 1
    42   20   48 1
    43   21   22 1
    44   21   49 1
    45   21   50 1
    46   22   27 ar
    47   22   23 ar
    48   23   24 ar
    49   23   51 1
    50   24   25 ar
    51   24   52 1
    52   25   26 ar
    53   25   53 1
    54   26   27 ar
    55   26   54 1
    56   27   28 1
    57   28   29 1
    58   29   55 1
    59   29   56 1
    60   29   57 1
@<TRIPOS>MOLECULE
ZINC12436059
   66    70     0     0     0
SMALL
USER_CHARGES
(5S)-2-[1-(1,3-benzodioxol-5-yl)-4-piperidyl]-9-(2-methoxyethyl)-2,9-diazaspiro[4.5]decane
@<TRIPOS>ATOM
      1 C1         -2.2907    7.0385    0.5633 C.3       1 <0>         0.0289
      2 O1         -1.3144    6.0781    0.9713 O.3       1 <0>        -0.4070
      3 C2          0.0329    6.5469    0.8868 C.3       1 <0>         0.0224
      4 C3          0.9869    5.4422    1.3455 C.3       1 <0>         0.0021
      5 C4          1.4205    4.6847   -0.9125 C.3       1 <0>        -0.0132
      6 C5          1.1823    3.5389   -1.8989 C.3       1 <0>        -0.1455
      7 C6          1.9096    2.2856   -1.3997 C.3       1 <0>        -0.1344
      8 C7          1.4306    1.9552    0.0080 C.3       1 <0>        -0.1054
      9 C8          1.6239    3.1402    0.9438 C.3       1 <0>         0.0124
     10 C9         -0.0452    1.5181   -0.0131 C.3       1 <0>        -0.1590
     11 C10        -0.0041   -0.0227   -0.0266 C.3       1 <0>        -0.0055
     12 C11         2.1706    0.7149    0.5498 C.3       1 <0>         0.0071
     13 C12         1.6389   -1.6571    0.7044 C.3       1 <0>         0.0325
     14 C13         3.1333   -1.9900    0.7232 C.3       1 <0>        -0.1373
     15 C14         3.3468   -3.3138    1.4610 C.3       1 <0>         0.0543
     16 N1          2.5966   -4.3801    0.7854 N.pl3     1 <0>        -0.4832
     17 C15         1.1542   -4.1046    0.7979 C.3       1 <0>         0.0499
     18 C16         0.8751   -2.8053    0.0389 C.3       1 <0>        -0.1362
     19 C17         2.8738   -5.6273    1.3560 C.ar      1 <0>         0.1013
     20 C18         1.8383   -6.4135    1.8437 C.ar      1 <0>        -0.1551
     21 C19         2.1103   -7.6470    2.4041 C.ar      1 <0>        -0.0739
     22 C20         3.4171   -8.0991    2.4891 C.ar      1 <0>         0.0249
     23 C21         4.4584   -7.3107    2.0055 C.ar      1 <0>         0.0631
     24 C22         4.1846   -6.0763    1.4400 C.ar      1 <0>        -0.1184
     25 O2          5.6357   -7.9723    2.2049 O.3       1 <0>        -0.3050
     26 C23         5.2706   -9.3448    2.4418 C.3       1 <0>         0.2127
     27 O3          3.9430   -9.2555    2.9921 O.3       1 <0>        -0.3037
     28 H1         -3.2869    6.6062    0.6568 H         1 <0>         0.1031
     29 H2         -2.2174    7.9226    1.1966 H         1 <0>         0.0598
     30 H3         -2.1124    7.3194   -0.4747 H         1 <0>         0.0539
     31 H4          0.1543    7.4208    1.5268 H         1 <0>         0.1038
     32 H5          0.2593    6.8175   -0.1445 H         1 <0>         0.0767
     33 H6          0.7044    5.1097    2.3443 H         1 <0>         0.1412
     34 H7          2.0063    5.8278    1.3657 H         1 <0>         0.1495
     35 H8          2.4890    4.8892   -0.8452 H         1 <0>         0.1382
     36 H9          0.9022    5.5777   -1.2618 H         1 <0>         0.1364
     37 H10         1.5673    3.8170   -2.8800 H         1 <0>         0.1256
     38 H11         0.1138    3.3358   -1.9702 H         1 <0>         0.0928
     39 H12         2.9839    2.4697   -1.3849 H         1 <0>         0.1027
     40 H13         1.6919    1.4494   -2.0641 H         1 <0>         0.0950
     41 H14         1.2306    2.8921    1.9296 H         1 <0>         0.1397
     42 H15         2.6865    3.3693    1.0246 H         1 <0>         0.1457
     43 H16        -0.5383    1.8919   -0.9105 H         1 <0>         0.1178
     44 H17        -0.5590    1.8756    0.8793 H         1 <0>         0.1117
     45 H18        -0.4809   -0.4149    0.8716 H         1 <0>         0.1402
     46 H19        -0.5145   -0.4001   -0.9127 H         1 <0>         0.1436
     47 H20         2.1134    0.6776    1.6377 H         1 <0>         0.1449
     48 H21         3.2094    0.7088    0.2199 H         1 <0>         0.1512
     49 H22         1.2820   -1.5260    1.7260 H         1 <0>         0.1377
     50 H23         3.4986   -2.0815   -0.2997 H         1 <0>         0.1000
     51 H24         3.6768   -1.1955    1.2346 H         1 <0>         0.0946
     52 H25         2.9949   -3.2168    2.4881 H         1 <0>         0.0582
     53 H26         4.4082   -3.5615    1.4627 H         1 <0>         0.1068
     54 H27         0.8127   -4.0040    1.8281 H         1 <0>         0.0610
     55 H28         0.6234   -4.9267    0.3179 H         1 <0>         0.1102
     56 H29        -0.1937   -2.5929    0.0618 H         1 <0>         0.0973
     57 H30         1.2039   -2.9100   -0.9950 H         1 <0>         0.1000
     58 H31         0.8189   -6.0619    1.7822 H         1 <0>         0.1406
     59 H32         1.3030   -8.2584    2.7794 H         1 <0>         0.1428
     60 H33         4.9907   -5.4633    1.0648 H         1 <0>         0.1384
     61 H34         5.2608   -9.9053    1.5070 H         1 <0>         0.0924
     62 H35         5.9519   -9.8042    3.1579 H         1 <0>         0.1400
     63 N2          0.8815    4.3032    0.4097 N.4       1 <0>        -0.3939
     64 H36        -0.1075    4.0478    0.3053 H         1 <0>         0.4340
     65 N3          1.4172   -0.3904   -0.0565 N.4       1 <0>        -0.3948
     66 H37         1.7208   -0.5238   -1.0283 H         1 <0>         0.4325
@<TRIPOS>BOND
     1    1    2 1
     2    1   28 1
     3    1   29 1
     4    1   30 1
     5    2    3 1
     6    3    4 1
     7    3   31 1
     8    3   32 1
     9    4   33 1
    10    4   34 1
    11    4   63 1
    12    5    6 1
    13    5   35 1
    14    5   36 1
    15    5   63 1
    16    6    7 1
    17    6   37 1
    18    6   38 1
    19    7    8 1
    20    7   39 1
    21    7   40 1
    22    8   12 1
    23    8    9 1
    24    8   10 1
    25    9   41 1
    26    9   42 1
    27    9   63 1
    28   10   11 1
    29   10   43 1
    30   10   44 1
    31   11   45 1
    32   11   46 1
    33   11   65 1
    34   12   47 1
    35   12   48 1
    36   12   65 1
    37   13   18 1
    38   13   14 1
    39   13   49 1
    40   13   65 1
    41   14   15 1
    42   14   50 1
    43   14   51 1
    44   15   16 1
    45   15   52 1
    46   15   53 1
    47   16   17 1
    48   16   19 1
    49   17   18 1
    50   17   54 1
    51   17   55 1
    52   18   56 1
    53   18   57 1
    54   19   24 ar
    55   19   20 ar
    56   20   21 ar
    57   20   58 1
    58   21   22 ar
    59   21   59 1
    60   22   27 1
    61   22   23 ar
    62   23   24 ar
    63   23   25 1
    64   24   60 1
    65   25   26 1
    66   26   27 1
    67   26   61 1
    68   26   62 1
    69   63   64 1
    70   65   66 1
@<TRIPOS>MOLECULE
ZINC40011056
   51    54     0     0     0
SMALL
USER_CHARGES

@<TRIPOS>ATOM
      1 C1          7.5656   -1.1857    6.9308 C.3       1 <0>         0.0075
      2 O1          6.1540   -1.2436    6.7162 O.3       1 <0>        -0.2901
      3 C2          5.6973   -2.2047    5.8702 C.ar      1 <0>         0.1003
      4 C3          6.6100   -3.0777    5.2662 C.ar      1 <0>         0.0413
      5 C4          6.2261   -4.0603    4.4116 C.ar      1 <0>        -0.1889
      6 C5          4.8672   -4.2421    4.0934 C.ar      1 <0>         0.3326
      7 N1          4.5047   -5.2111    3.2527 N.am      1 <0>        -0.5942
      8 C6          3.2477   -5.4376    2.9104 C.2       1 <0>         0.4843
      9 O2          2.9778   -6.3380    2.1381 O.2       1 <0>        -0.3783
     10 C7          2.1469   -4.5735    3.4831 C.3       1 <0>        -0.1609
     11 H1          1.6145   -4.1144    2.6501 H         1 <0>         0.2109
     12 C8          2.5537   -3.4699    4.4399 C.2       1 <0>         0.0899
     13 C9          3.8826   -3.3384    4.7137 C.ar      1 <0>        -0.1313
     14 C10         4.3601   -2.3033    5.6309 C.ar      1 <0>        -0.0562
     15 C11         1.1638   -5.4893    4.2148 C.3       1 <0>         0.1119
     16 H2          0.4194   -4.8805    4.7281 H         1 <0>         0.1843
     17 C12         0.4736   -6.3780    3.2135 C.ar      1 <0>        -0.1500
     18 C13         0.0736   -5.8262    2.0050 C.ar      1 <0>        -0.1512
     19 C14        -0.5663   -6.6051    1.0578 C.ar      1 <0>         0.1274
     20 C15        -0.8097   -7.9504    1.3202 C.ar      1 <0>         0.1528
     21 C16        -0.4077   -8.4967    2.5260 C.ar      1 <0>        -0.1667
     22 C17         0.2341   -7.7112    3.4716 C.ar      1 <0>        -0.0636
     23 C18         0.6615   -8.3495    4.7689 C.3       1 <0>        -0.1092
     24 C19         0.9696   -7.2655    5.8025 C.3       1 <0>        -0.0018
     25 N2          1.8934   -6.2927    5.1999 N.4       1 <0>        -0.5167
     26 O3         -1.4398   -8.7237    0.3959 O.3       1 <0>        -0.2900
     27 C20        -1.6549  -10.0950    0.7354 C.3       1 <0>         0.0180
     28 O4         -0.9558   -6.0590   -0.1252 O.3       1 <0>        -0.2898
     29 C21        -0.6722   -4.6727   -0.3243 C.3       1 <0>         0.0209
     30 H3          8.0703   -1.0044    5.9818 H         1 <0>         0.0720
     31 H4          7.7948   -0.3767    7.6245 H         1 <0>         0.1287
     32 H5          7.9085   -2.1317    7.3498 H         1 <0>         0.0713
     33 H6          7.6608   -2.9648    5.4885 H         1 <0>         0.1818
     34 H7          6.9701   -4.7080    3.9718 H         1 <0>         0.1842
     35 H8          1.8203   -2.8151    4.8869 H         1 <0>         0.2174
     36 H9          3.6652   -1.6270    6.1065 H         1 <0>         0.1892
     37 H10         0.2626   -4.7822    1.8027 H         1 <0>         0.1390
     38 H11        -0.5958   -9.5400    2.7325 H         1 <0>         0.1530
     39 H12        -0.1407   -8.9871    5.1406 H         1 <0>         0.1349
     40 H13         1.5534   -8.9526    4.5995 H         1 <0>         0.1071
     41 H14         0.0467   -6.7631    6.0921 H         1 <0>         0.1492
     42 H15         1.4341   -7.7171    6.6791 H         1 <0>         0.1526
     43 H16         2.6491   -6.7816    4.7438 H         1 <0>         0.4213
     44 H17        -2.1652  -10.5971   -0.0866 H         1 <0>         0.1169
     45 H18        -0.6954  -10.5792    0.9172 H         1 <0>         0.0631
     46 H19        -2.2683  -10.1548    1.6344 H         1 <0>         0.0648
     47 H20        -1.1701   -4.0855    0.4473 H         1 <0>         0.0608
     48 H21         0.4040   -4.5101   -0.2669 H         1 <0>         0.0538
     49 H22        -1.0344   -4.3650   -1.3053 H         1 <0>         0.1161
     50 H23         5.1958   -5.7766    2.8739 H         1 <0>         0.4494
     51 H24         2.2645   -5.6900    5.9190 H         1 <0>         0.4301
@<TRIPOS>BOND
     1    1    2 1
     2    1   30 1
     3    1   31 1
     4    1   32 1
     5    2    3 1
     6    3   14 ar
     7    3    4 ar
     8    4    5 ar
     9    4   33 1
    10    5    6 ar
    11    5   34 1
    12    6   13 ar
    13    6    7 2
    14    7    8 am
    15    7   50 1
    16    8    9 2
    17    8   10 1
    18   10   11 1
    19   10   12 1
    20   10   15 1
    21   12   13 2
    22   12   35 1
    23   13   14 ar
    24   14   36 1
    25   15   16 1
    26   15   25 1
    27   15   17 1
    28   17   22 ar
    29   17   18 ar
    30   18   19 ar
    31   18   37 1
    32   19   20 ar
    33   19   28 1
    34   20   21 ar
    35   20   26 1
    36   21   22 ar
    37   21   38 1
    38   22   23 1
    39   23   24 1
    40   23   39 1
    41   23   40 1
    42   24   25 1
    43   24   41 1
    44   24   42 1
    45   25   43 1
    46   25   51 1
    47   26   27 1
    48   27   44 1
    49   27   45 1
    50   27   46 1
    51   28   29 1
    52   29   47 1
    53   29   48 1
    54   29   49 1
@<TRIPOS>MOLECULE
ZINC63694686
   59    62     0     0     0
SMALL
USER_CHARGES

@<TRIPOS>ATOM
      1 C1         -0.0187    1.5258    0.0104 C.3       1 <0>        -0.1517
      2 C2          0.0021   -0.0041    0.0020 C.3       1 <0>         0.0526
      3 O1          0.6932   -0.4774    1.1597 O.3       1 <0>        -0.3136
      4 C3          0.8020   -1.8242    1.3057 C.ar      1 <0>         0.1471
      5 C4          0.2597   -2.6727    0.3511 C.ar      1 <0>        -0.2100
      6 C5          0.3720   -4.0411    0.5015 C.ar      1 <0>        -0.0638
      7 C6          1.0242   -4.5657    1.6023 C.ar      1 <0>        -0.1572
      8 C7          1.5650   -3.7225    2.5550 C.ar      1 <0>        -0.0622
      9 C8          1.4603   -2.3528    2.4062 C.ar      1 <0>        -0.1549
     10 C9          2.0555   -1.4341    3.4420 C.3       1 <0>         0.1724
     11 N1          1.0002   -0.9665    4.3441 N.am      1 <0>        -0.7146
     12 C10         1.3010   -0.1283    5.3558 C.2       1 <0>         0.5128
     13 O2          2.4453    0.2387    5.5194 O.2       1 <0>        -0.5234
     14 C11         0.2155    0.3527    6.2839 C.3       1 <0>        -0.1151
     15 C12        -0.4270   -0.8472    6.9852 C.3       1 <0>        -0.1090
     16 C13        -1.4863   -0.3487    7.9709 C.3       1 <0>         0.0220
     17 N2         -0.8590    0.5397    8.9577 N.3       1 <0>        -0.4864
     18 C14        -0.2764    1.7230    8.3122 C.3       1 <0>         0.0391
     19 C15         0.8190    1.2864    7.3368 C.3       1 <0>        -0.1023
     20 C16        -1.8175    0.9275   10.0012 C.3       1 <0>         0.4011
     21 H1         -1.3675    1.6639   10.6670 H         1 <0>         0.2444
     22 N3         -3.0335    1.4777    9.3893 N.pl3     1 <0>        -0.5026
     23 C17        -4.0287    0.7190    9.7476 C.ar      1 <0>         0.3337
     24 C18        -5.4690    0.7578    9.4589 C.ar      1 <0>        -0.1383
     25 C19        -6.2778   -0.1851    9.9824 C.ar      1 <0>         0.0348
     26 C20        -5.8011   -1.2214   10.8048 C.ar      1 <0>         0.0867
     27 C21        -4.4997   -1.3492   11.1321 C.ar      1 <0>        -0.1671
     28 C22        -3.5242   -0.3777   10.6185 C.ar      1 <0>         0.3263
     29 N4         -2.2355   -0.2543   10.7658 N.pl3     1 <0>        -0.4721
     30 C23        -6.7845   -2.2290   11.3421 C.3       1 <0>        -0.1615
     31 H2          1.0039    1.9031    0.0027 H         1 <0>         0.0689
     32 H3         -0.5459    1.8868   -0.8726 H         1 <0>         0.0831
     33 H4         -0.5289    1.8773    0.9072 H         1 <0>         0.0609
     34 H5         -1.0205   -0.3814    0.0098 H         1 <0>         0.0627
     35 H6          0.5123   -0.3556   -0.8948 H         1 <0>         0.0674
     36 H7         -0.2501   -2.2635   -0.5086 H         1 <0>         0.1321
     37 H8         -0.0503   -4.7020   -0.2411 H         1 <0>         0.1309
     38 H9          1.1110   -5.6360    1.7181 H         1 <0>         0.1299
     39 H10         2.0736   -4.1346    3.4140 H         1 <0>         0.1309
     40 H11         2.8107   -1.9727    4.0145 H         1 <0>         0.0796
     41 H12         2.5161   -0.5789    2.9474 H         1 <0>         0.0837
     42 H13         0.0850   -1.2600    4.2133 H         1 <0>         0.3976
     43 H14        -0.5413    0.8896    5.7119 H         1 <0>         0.1018
     44 H15        -0.8957   -1.4941    6.2437 H         1 <0>         0.0997
     45 H16         0.3379   -1.4058    7.5248 H         1 <0>         0.0979
     46 H17        -2.2580    0.1979    7.4289 H         1 <0>         0.0640
     47 H18        -1.9357   -1.1999    8.4823 H         1 <0>         0.0881
     48 H19        -1.0538    2.2599    7.7686 H         1 <0>         0.0655
     49 H20         0.1529    2.3765    9.0716 H         1 <0>         0.1191
     50 H21         1.6035    0.7614    7.8818 H         1 <0>         0.1005
     51 H22         1.2405    2.1638    6.8463 H         1 <0>         0.1095
     52 H23        -5.8768    1.5367    8.8318 H         1 <0>         0.2070
     53 H24        -7.3341   -0.1431    9.7610 H         1 <0>         0.2040
     54 H25        -4.1760   -2.1604   11.7674 H         1 <0>         0.2048
     55 H26        -6.8713   -3.0606   10.6428 H         1 <0>         0.1316
     56 H27        -6.4350   -2.5996   12.3058 H         1 <0>         0.1117
     57 H28        -7.7584   -1.7556   11.4664 H         1 <0>         0.1148
     58 H29        -3.0857    2.2626    8.8217 H         1 <0>         0.4882
     59 H30        -1.6580   -0.8361   11.2843 H         1 <0>         0.4968
@<TRIPOS>BOND
     1    1    2 1
     2    1   31 1
     3    1   32 1
     4    1   33 1
     5    2    3 1
     6    2   34 1
     7    2   35 1
     8    3    4 1
     9    4    9 ar
    10    4    5 ar
    11    5    6 ar
    12    5   36 1
    13    6    7 ar
    14    6   37 1
    15    7    8 ar
    16    7   38 1
    17    8    9 ar
    18    8   39 1
    19    9   10 1
    20   10   11 1
    21   10   40 1
    22   10   41 1
    23   11   12 am
    24   11   42 1
    25   12   13 2
    26   12   14 1
    27   14   19 1
    28   14   15 1
    29   14   43 1
    30   15   16 1
    31   15   44 1
    32   15   45 1
    33   16   17 1
    34   16   46 1
    35   16   47 1
    36   17   18 1
    37   17   20 1
    38   18   19 1
    39   18   48 1
    40   18   49 1
    41   19   50 1
    42   19   51 1
    43   20   21 1
    44   20   29 1
    45   20   22 1
    46   22   23 2
    47   22   58 1
    48   23   28 ar
    49   23   24 ar
    50   24   25 ar
    51   24   52 1
    52   25   26 ar
    53   25   53 1
    54   26   27 ar
    55   26   30 1
    56   27   28 ar
    57   27   54 1
    58   28   29 2
    59   29   59 1
    60   30   55 1
    61   30   56 1
    62   30   57 1
@<TRIPOS>MOLECULE
ZINC64040498
   59    64     0     0     0
SMALL
USER_CHARGES

@<TRIPOS>ATOM
      1 C1          0.6153    2.1675    0.6473 C.3       1 <0>        -0.1380
      2 C2          0.5359    0.6725    0.4749 C.ar      1 <0>        -0.0728
      3 C3          0.5569    0.1328   -0.8186 C.ar      1 <0>         0.0733
      4 C4          0.4852   -1.1942   -1.0541 C.ar      1 <0>        -0.2044
      5 C5          0.3836   -2.1136    0.0244 C.ar      1 <0>         0.3426
      6 N1          0.3263   -3.4267    0.0507 N.pl3     1 <0>        -0.5638
      7 C6          0.1317   -3.8524    1.4324 C.3       1 <0>         0.0953
      8 H1         -0.8613   -4.2823    1.5641 H         1 <0>         0.1886
      9 C7          1.2093   -4.8333    1.9054 C.3       1 <0>        -0.1382
     10 C8          1.1196   -4.9357    3.4326 C.3       1 <0>        -0.0161
     11 N2          1.4556   -3.6648    4.0781 N.4       1 <0>        -0.3906
     12 C9          0.4382   -2.6388    3.7708 C.3       1 <0>         0.0525
     13 C10         0.2842   -2.5905    2.2675 C.2       1 <0>        -0.0492
     14 C11         0.3692   -1.5695    1.4054 C.ar      1 <0>        -0.0737
     15 C12         0.4518   -0.1126    1.5719 C.ar      1 <0>        -0.0625
     16 C13         1.5197   -3.8626    5.5323 C.3       1 <0>         0.0823
     17 C14         2.6646   -4.7847    5.8639 C.2       1 <0>        -0.3197
     18 C15         2.5651   -6.0936    6.1829 C.2       1 <0>         0.1125
     19 N3          3.8107   -6.5633    6.4095 N.pl3     1 <0>        -0.3437
     20 N4          4.7145   -5.5093    6.2248 N.2       1 <0>        -0.2522
     21 C16         4.0291   -4.4365    5.8903 C.2       1 <0>         0.1441
     22 C17         4.5940   -3.0958    5.5969 C.ar      1 <0>        -0.0483
     23 C18         3.9864   -1.9537    6.1145 C.ar      1 <0>        -0.1086
     24 C19         4.5121   -0.7082    5.8395 C.ar      1 <0>        -0.1113
     25 C20         5.6464   -0.5875    5.0483 C.ar      1 <0>         0.0742
     26 C21         6.2580   -1.7245    4.5309 C.ar      1 <0>         0.0593
     27 C22         5.7357   -2.9769    4.8081 C.ar      1 <0>        -0.0829
     28 O1          7.3754   -1.6245    3.7598 O.3       1 <0>        -0.3012
     29 C23         7.6586   -0.3374    3.2005 C.3       1 <0>         0.0203
     30 C24         7.4935    0.7138    4.3064 C.3       1 <0>         0.0161
     31 O2          6.1461    0.6515    4.7863 O.3       1 <0>        -0.3012
     32 C25         4.1567   -7.9368    6.7837 C.3       1 <0>         0.0835
     33 H2          1.6598    2.4693    0.7254 H         1 <0>         0.0971
     34 H3          0.1590    2.6572   -0.2130 H         1 <0>         0.0906
     35 H4          0.0846    2.4574    1.5541 H         1 <0>         0.0888
     36 H5          0.6332    0.8055   -1.6600 H         1 <0>         0.1735
     37 H6          0.5048   -1.5600   -2.0700 H         1 <0>         0.1732
     38 H7          1.0370   -5.8130    1.4597 H         1 <0>         0.1456
     39 H8          2.1942   -4.4652    1.6181 H         1 <0>         0.1107
     40 H9          0.1046   -5.2191    3.7113 H         1 <0>         0.1471
     41 H10         1.8103   -5.7045    3.7790 H         1 <0>         0.1549
     42 H11        -0.5166   -2.9139    4.2189 H         1 <0>         0.1749
     43 H12         0.7619   -1.6679    4.1461 H         1 <0>         0.1694
     44 H13         0.4414    0.3262    2.5587 H         1 <0>         0.1695
     45 H14         1.6732   -2.9017    6.0233 H         1 <0>         0.1457
     46 H15         0.5856   -4.3034    5.8805 H         1 <0>         0.1455
     47 H16         1.6502   -6.6640    6.2462 H         1 <0>         0.1909
     48 H17         3.1040   -2.0434    6.7306 H         1 <0>         0.1369
     49 H18         4.0393    0.1760    6.2408 H         1 <0>         0.1472
     50 H19         6.2110   -3.8608    4.4090 H         1 <0>         0.1415
     51 H20         8.6812   -0.3172    2.8238 H         1 <0>         0.1332
     52 H21         6.9627   -0.1285    2.3880 H         1 <0>         0.0803
     53 H22         8.1846    0.5008    5.1221 H         1 <0>         0.0884
     54 H23         7.6946    1.7063    3.9032 H         1 <0>         0.1341
     55 H24         4.3295   -8.5261    5.8832 H         1 <0>         0.0927
     56 H25         5.0605   -7.9307    7.3929 H         1 <0>         0.1057
     57 H26         3.3375   -8.3755    7.3534 H         1 <0>         0.1037
     58 H27         0.4006   -4.0132   -0.7183 H         1 <0>         0.4636
     59 H28         2.3552   -3.3509    3.7460 H         1 <0>         0.4291
@<TRIPOS>BOND
     1    1    2 1
     2    1   33 1
     3    1   34 1
     4    1   35 1
     5    2   15 ar
     6    2    3 ar
     7    3    4 ar
     8    3   36 1
     9    4    5 ar
    10    4   37 1
    11    5   14 ar
    12    5    6 2
    13    6    7 1
    14    6   58 1
    15    7    8 1
    16    7   13 1
    17    7    9 1
    18    9   10 1
    19    9   38 1
    20    9   39 1
    21   10   11 1
    22   10   40 1
    23   10   41 1
    24   11   12 1
    25   11   16 1
    26   11   59 1
    27   12   13 1
    28   12   42 1
    29   12   43 1
    30   13   14 2
    31   14   15 ar
    32   15   44 1
    33   16   17 1
    34   16   45 1
    35   16   46 1
    36   17   21 1
    37   17   18 2
    38   18   19 1
    39   18   47 1
    40   19   20 1
    41   19   32 1
    42   20   21 2
    43   21   22 1
    44   22   27 ar
    45   22   23 ar
    46   23   24 ar
    47   23   48 1
    48   24   25 ar
    49   24   49 1
    50   25   31 1
    51   25   26 ar
    52   26   27 ar
    53   26   28 1
    54   27   50 1
    55   28   29 1
    56   29   30 1
    57   29   51 1
    58   29   52 1
    59   30   31 1
    60   30   53 1
    61   30   54 1
    62   32   55 1
    63   32   56 1
    64   32   57 1
@<TRIPOS>MOLECULE
ZINC65490853
   60    63     0     0     0
SMALL
USER_CHARGES

@<TRIPOS>ATOM
      1 C1         -0.0187    1.5258    0.0104 C.3       1 <0>        -0.1743
      2 C2          0.0021   -0.0041    0.0020 C.3       1 <0>         0.1504
      3 N1         -1.3723   -0.5112    0.0124 N.am      1 <0>        -0.6469
      4 C3         -2.1857   -0.8154    1.2005 C.3       1 <0>         0.2795
      5 H1         -1.7149   -1.5988    1.7945 H         1 <0>         0.0781
      6 N2         -3.4717   -1.2873    0.6497 N.3       1 <0>        -0.4345
      7 N3         -3.3449   -1.2355   -0.7090 N.am      1 <0>        -0.4908
      8 C4         -2.1349   -0.7824   -1.0624 C.2       1 <0>         0.6858
      9 O1         -1.7695   -0.6372   -2.2130 O.2       1 <0>        -0.5515
     10 C5         -4.3954   -1.6195   -1.6551 C.3       1 <0>         0.1261
     11 C6         -2.3918    0.4438    2.0448 C.3       1 <0>        -0.1126
     12 C7         -3.1316    0.0785    3.3333 C.3       1 <0>        -0.0976
     13 C8         -2.2480   -0.8325    4.1904 C.3       1 <0>        -0.1500
     14 C9         -2.9608   -1.1292    5.5115 C.3       1 <0>        -0.0065
     15 N4         -3.2124    0.1265    6.2287 N.4       1 <0>        -0.3841
     16 C10        -4.1172    0.9754    5.4443 C.3       1 <0>        -0.0176
     17 C11        -3.4489    1.3531    4.1206 C.3       1 <0>        -0.1389
     18 C12        -3.8261   -0.1691    7.5302 C.3       1 <0>         0.0466
     19 C13        -3.9724    1.1071    8.3181 C.2       1 <0>        -0.0577
     20 C14        -5.0687    1.8958    8.3923 C.ar      1 <0>        -0.0837
     21 C15        -6.4016    1.8056    7.7841 C.ar      1 <0>        -0.0790
     22 C16        -7.3111    2.7702    8.0511 C.ar      1 <0>        -0.0893
     23 C17        -7.0134    3.8516    8.8918 C.ar      1 <0>         0.0423
     24 C18        -5.8113    4.0032    9.4869 C.ar      1 <0>        -0.1538
     25 C19        -4.7795    3.0473    9.2766 C.ar      1 <0>         0.3350
     26 N5         -3.5522    2.9733    9.7314 N.pl3     1 <0>        -0.5531
     27 C20        -2.9253    1.7618    9.1911 C.3       1 <0>         0.0666
     28 C21        -5.5612    5.1920   10.3787 C.3       1 <0>        -0.1330
     29 H2          1.0039    1.9031    0.0027 H         1 <0>         0.0752
     30 H3         -0.5459    1.8868   -0.8726 H         1 <0>         0.0647
     31 H4         -0.5289    1.8773    0.9072 H         1 <0>         0.0533
     32 H5          0.5123   -0.3556   -0.8948 H         1 <0>         0.0919
     33 H6          0.5293   -0.3651    0.8851 H         1 <0>         0.0804
     34 H7         -3.6745   -2.2263    0.9584 H         1 <0>         0.3389
     35 H8         -5.0116   -0.7506   -1.8861 H         1 <0>         0.0674
     36 H9         -3.9396   -1.9957   -2.5710 H         1 <0>         0.0878
     37 H10        -5.0165   -2.3980   -1.2120 H         1 <0>         0.0795
     38 H11        -1.4231    0.8777    2.2926 H         1 <0>         0.0842
     39 H12        -2.9804    1.1672    1.4806 H         1 <0>         0.0903
     40 H13        -4.0592   -0.4382    3.0870 H         1 <0>         0.1049
     41 H14        -2.0637   -1.7660    3.6586 H         1 <0>         0.1190
     42 H15        -1.2997   -0.3346    4.3923 H         1 <0>         0.0934
     43 H16        -3.9088   -1.6274    5.3084 H         1 <0>         0.1390
     44 H17        -2.3345   -1.7778    6.1241 H         1 <0>         0.1399
     45 H18        -5.0406    0.4324    5.2427 H         1 <0>         0.1399
     46 H19        -4.3446    1.8806    6.0073 H         1 <0>         0.1204
     47 H20        -2.5255    1.8964    4.3211 H         1 <0>         0.0896
     48 H21        -4.1229    1.9819    3.5389 H         1 <0>         0.1201
     49 H22        -4.8085   -0.6154    7.3757 H         1 <0>         0.1641
     50 H23        -3.1933   -0.8654    8.0805 H         1 <0>         0.1692
     51 H24        -6.6521    0.9813    7.1328 H         1 <0>         0.1657
     52 H25        -8.2924    2.7058    7.6047 H         1 <0>         0.1702
     53 H26        -7.7770    4.5942    9.0704 H         1 <0>         0.1723
     54 H27        -2.6388    1.0912   10.0012 H         1 <0>         0.1874
     55 H28        -2.0519    2.0270    8.5954 H         1 <0>         0.1757
     56 H29        -5.8342    4.9411   11.4037 H         1 <0>         0.0960
     57 H30        -4.5054    5.4601   10.3391 H         1 <0>         0.0721
     58 H31        -6.1631    6.0346   10.0383 H         1 <0>         0.1018
     59 H32        -3.1304    3.6109   10.3285 H         1 <0>         0.4653
     60 H33        -2.3392    0.6109    6.3731 H         1 <0>         0.4245
@<TRIPOS>BOND
     1    1    2 1
     2    1   29 1
     3    1   30 1
     4    1   31 1
     5    2    3 1
     6    2   32 1
     7    2   33 1
     8    3    8 am
     9    3    4 1
    10    4    5 1
    11    4    6 1
    12    4   11 1
    13    6    7 1
    14    6   34 1
    15    7    8 am
    16    7   10 1
    17    8    9 2
    18   10   35 1
    19   10   36 1
    20   10   37 1
    21   11   12 1
    22   11   38 1
    23   11   39 1
    24   12   17 1
    25   12   13 1
    26   12   40 1
    27   13   14 1
    28   13   41 1
    29   13   42 1
    30   14   15 1
    31   14   43 1
    32   14   44 1
    33   15   16 1
    34   15   18 1
    35   15   60 1
    36   16   17 1
    37   16   45 1
    38   16   46 1
    39   17   47 1
    40   17   48 1
    41   18   19 1
    42   18   49 1
    43   18   50 1
    44   19   27 1
    45   19   20 2
    46   20   25 ar
    47   20   21 ar
    48   21   22 ar
    49   21   51 1
    50   22   23 ar
    51   22   52 1
    52   23   24 ar
    53   23   53 1
    54   24   25 ar
    55   24   28 1
    56   25   26 2
    57   26   27 1
    58   26   59 1
    59   27   54 1
    60   27   55 1
    61   28   56 1
    62   28   57 1
    63   28   58 1
@<TRIPOS>MOLECULE
ZINC19945644
   45    47     0     0     0
SMALL
USER_CHARGES
(1S,2R)-2-methyl-N-[(1S)-1-[3-(tetrazol-1-yl)phenyl]ethyl]cyclohexan-1-amine
@<TRIPOS>ATOM
      1 C1          0.6858    3.6387    1.2644 C.3       1 <0>        -0.1759
      2 C2         -0.7496    3.1091    1.2752 C.3       1 <0>        -0.1043
      3 H1         -1.2645    3.4639    2.1802 H         1 <0>         0.0944
      4 C3         -0.7288    1.5792    1.2668 C.3       1 <0>        -0.1151
      5 C4         -0.0127    1.0858    0.0080 C.3       1 <0>        -0.1340
      6 C5         -0.7527    1.5927   -1.2315 C.3       1 <0>        -0.1179
      7 C6         -0.7734    3.1225   -1.2231 C.3       1 <0>        -0.1421
      8 C7         -1.4896    3.6159    0.0357 C.3       1 <0>         0.0381
      9 H2         -2.5353    3.2747    0.0439 H         1 <0>         0.1352
     10 N1         -1.5095    5.0847    0.0438 N.4       1 <0>        -0.5416
     11 C8         -2.6474    5.6001   -0.7293 C.3       1 <0>         0.0847
     12 H3         -2.8004    4.9286   -1.5870 H         1 <0>         0.1436
     13 C9         -3.8909    5.6437    0.1611 C.3       1 <0>        -0.1788
     14 C10        -2.3327    6.9894   -1.2210 C.ar      1 <0>        -0.1145
     15 C11        -1.6693    7.8801   -0.3969 C.ar      1 <0>        -0.1193
     16 C12        -1.3789    9.1555   -0.8446 C.ar      1 <0>        -0.0735
     17 C13        -1.7512    9.5439   -2.1170 C.ar      1 <0>        -0.1024
     18 C14        -2.4170    8.6521   -2.9463 C.ar      1 <0>         0.1575
     19 C15        -2.7019    7.3699   -2.4962 C.ar      1 <0>        -0.0802
     20 N2         -2.7962    9.0435   -4.2388 N.pl3     1 <0>        -0.3470
     21 C16        -2.5106   10.2084   -4.8598 C.2       1 <0>         0.2380
     22 N3         -3.0551   10.1588   -6.0474 N.2       1 <0>        -0.3162
     23 N4         -3.6653    9.0420   -6.2195 N.2       1 <0>        -0.0146
     24 N5         -3.5499    8.3048   -5.1679 N.2       1 <0>        -0.0747
     25 H4          1.2178    3.2743    2.1556 H         1 <0>         0.0836
     26 H5          0.6709    4.7386    1.2705 H         1 <0>         0.0506
     27 H6          1.2007    3.2840    0.3594 H         1 <0>         0.0781
     28 H7         -0.1967    1.2149    2.1580 H         1 <0>         0.0852
     29 H8         -1.7608    1.1984    1.2747 H         1 <0>         0.0750
     30 H9          1.0193    1.4665    0.0002 H         1 <0>         0.0734
     31 H10         0.0022   -0.0141    0.0019 H         1 <0>         0.0796
     32 H11        -0.2379    1.2379   -2.1365 H         1 <0>         0.0846
     33 H12        -1.7847    1.2120   -1.2237 H         1 <0>         0.0745
     34 H13         0.2586    3.5032   -1.2309 H         1 <0>         0.0905
     35 H14        -1.3053    3.4869   -2.1143 H         1 <0>         0.0842
     36 H15        -1.5950    5.4445    1.0798 H         1 <0>         0.4442
     37 H16        -4.7430    6.0296   -0.4177 H         1 <0>         0.1082
     38 H17        -3.7031    6.3032    1.0212 H         1 <0>         0.0863
     39 H18        -4.1206    4.6296    0.5200 H         1 <0>         0.0868
     40 H19        -1.3780    7.5790    0.5985 H         1 <0>         0.1330
     41 H20        -0.8608    9.8490   -0.1988 H         1 <0>         0.1527
     42 H21        -1.5247   10.5405   -2.4659 H         1 <0>         0.1483
     43 H22        -3.2157    6.6723   -3.1410 H         1 <0>         0.1512
     44 H23        -1.9385   11.0283   -4.4514 H         1 <0>         0.2443
     45 H24        -0.5788    5.4665   -0.4013 H         1 <0>         0.4462
@<TRIPOS>BOND
     1    1    2 1
     2    1   25 1
     3    1   26 1
     4    1   27 1
     5    2    3 1
     6    2    8 1
     7    2    4 1
     8    4    5 1
     9    4   28 1
    10    4   29 1
    11    5    6 1
    12    5   30 1
    13    5   31 1
    14    6    7 1
    15    6   32 1
    16    6   33 1
    17    7    8 1
    18    7   34 1
    19    7   35 1
    20    8    9 1
    21    8   10 1
    22   10   11 1
    23   10   36 1
    24   10   45 1
    25   11   12 1
    26   11   13 1
    27   11   14 1
    28   13   37 1
    29   13   38 1
    30   13   39 1
    31   14   19 ar
    32   14   15 ar
    33   15   16 ar
    34   15   40 1
    35   16   17 ar
    36   16   41 1
    37   17   18 ar
    38   17   42 1
    39   18   19 ar
    40   18   20 1
    41   19   43 1
    42   20   24 1
    43   20   21 1
    44   21   22 2
    45   21   44 1
    46   22   23 1
    47   23   24 2
@<TRIPOS>MOLECULE
ZINC36301097
   44    46     0     0     0
SMALL
USER_CHARGES

@<TRIPOS>ATOM
      1 C1         -0.0184    1.5028    0.0103 C.3       1 <0>        -0.1283
      2 C2          0.0021   -0.0041    0.0020 C.ar      1 <0>        -0.0396
      3 C3          0.0057   -0.6865   -1.2011 C.ar      1 <0>        -0.1233
      4 C4          0.0244   -2.0666   -1.2145 C.ar      1 <0>        -0.0642
      5 C5          0.0396   -2.7722   -0.0132 C.ar      1 <0>        -0.0711
      6 C6          0.0359   -2.0797    1.1957 C.ar      1 <0>        -0.0565
      7 C7          0.0229   -0.6995    1.1975 C.ar      1 <0>        -0.1270
      8 C8          0.0593   -4.2563   -0.0214 C.2       1 <0>         0.3106
      9 N1          0.0697   -5.0467    1.0668 N.2       1 <0>        -0.4874
     10 C9          0.0855   -6.2989    0.7084 C.2       1 <0>         0.2217
     11 O1          0.0858   -6.3575   -0.6296 O.3       1 <0>        -0.0843
     12 N2          0.0636   -5.0146   -1.0897 N.2       1 <0>        -0.2939
     13 C10         0.1016   -7.4819    1.6418 C.3       1 <0>         0.0901
     14 N3         -1.2780   -7.8842    1.9463 N.4       1 <0>        -0.3840
     15 C11        -1.9480   -6.8101    2.6917 C.3       1 <0>        -0.0574
     16 C12        -1.2633   -9.1082    2.7583 C.3       1 <0>         0.0246
     17 C13        -2.7010   -9.5330    3.0699 C.3       1 <0>        -0.1379
     18 C14        -2.6806  -10.8412    3.8637 C.3       1 <0>         0.0585
     19 N4         -2.0031  -11.8811    3.0787 N.3       1 <0>        -0.6941
     20 C15        -0.6067  -11.5166    2.8078 C.3       1 <0>         0.0589
     21 C16        -0.5652  -10.2286    1.9824 C.3       1 <0>        -0.1447
     22 H1          1.0042    1.8801    0.0026 H         1 <0>         0.0825
     23 H2         -0.5455    1.8639   -0.8728 H         1 <0>         0.0755
     24 H3         -0.5286    1.8543    0.9071 H         1 <0>         0.0753
     25 H4         -0.0065   -0.1386   -2.1317 H         1 <0>         0.1384
     26 H5          0.0268   -2.5985   -2.1544 H         1 <0>         0.1338
     27 H6          0.0473   -2.6218    2.1298 H         1 <0>         0.1372
     28 H7          0.0244   -0.1616    2.1340 H         1 <0>         0.1376
     29 H8          0.6257   -8.3117    1.1676 H         1 <0>         0.1703
     30 H9          0.6128   -7.2093    2.5650 H         1 <0>         0.1762
     31 H10        -1.9590   -5.9019    2.0892 H         1 <0>         0.1224
     32 H11        -2.9717   -7.1086    2.9177 H         1 <0>         0.1337
     33 H12        -1.4105   -6.6231    3.6213 H         1 <0>         0.1329
     34 H13        -0.7278   -8.9214    3.6892 H         1 <0>         0.1427
     35 H14        -3.1901   -8.7574    3.6591 H         1 <0>         0.0955
     36 H15        -3.2467   -9.6813    2.1380 H         1 <0>         0.0973
     37 H16        -2.1467  -10.6886    4.8017 H         1 <0>         0.0458
     38 H17        -3.7032  -11.1539    4.0748 H         1 <0>         0.0989
     39 H18        -2.0602  -12.7768    3.5397 H         1 <0>         0.3646
     40 H19        -0.0825  -11.3608    3.7507 H         1 <0>         0.0461
     41 H20        -0.1230  -12.3199    2.2520 H         1 <0>         0.0993
     42 H21        -1.0772  -10.3878    1.0335 H         1 <0>         0.0997
     43 H22         0.4718   -9.9499    1.7948 H         1 <0>         0.0939
     44 H23        -1.7756   -8.0573    1.0858 H         1 <0>         0.4294
@<TRIPOS>BOND
     1    1    2 1
     2    1   22 1
     3    1   23 1
     4    1   24 1
     5    2    7 ar
     6    2    3 ar
     7    3    4 ar
     8    3   25 1
     9    4    5 ar
    10    4   26 1
    11    5    6 ar
    12    5    8 1
    13    6    7 ar
    14    6   27 1
    15    7   28 1
    16    8   12 2
    17    8    9 1
    18    9   10 2
    19   10   11 1
    20   10   13 1
    21   11   12 1
    22   13   14 1
    23   13   29 1
    24   13   30 1
    25   14   15 1
    26   14   16 1
    27   14   44 1
    28   15   31 1
    29   15   32 1
    30   15   33 1
    31   16   21 1
    32   16   17 1
    33   16   34 1
    34   17   18 1
    35   17   35 1
    36   17   36 1
    37   18   19 1
    38   18   37 1
    39   18   38 1
    40   19   20 1
    41   19   39 1
    42   20   21 1
    43   20   40 1
    44   20   41 1
    45   21   42 1
    46   21   43 1
@<TRIPOS>MOLECULE
ZINC39948135
   42    44     0     0     0
SMALL
USER_CHARGES

@<TRIPOS>ATOM
      1 C1         -0.0163    1.3539    0.0095 C.ar      1 <0>        -0.1691
      2 C2          1.1646    2.0966    0.0022 C.ar      1 <0>         0.0962
      3 C3          2.3940    1.5184   -0.0126 C.ar      1 <0>        -0.2281
      4 C4          2.5243    0.1175   -0.0214 C.ar      1 <0>         0.3598
      5 N1          3.7356   -0.4388   -0.0354 N.am      1 <0>        -0.5950
      6 C5          3.9293   -1.7470   -0.0448 C.2       1 <0>         0.5244
      7 O1          5.0596   -2.1967   -0.0575 O.2       1 <0>        -0.4142
      8 C6          2.7406   -2.6814   -0.0390 C.3       1 <0>        -0.0785
      9 H1          2.8256   -3.3253    0.8363 H         1 <0>         0.1932
     10 C7          1.3606   -2.0537   -0.0225 C.2       1 <0>         0.1570
     11 C8          1.2935   -0.6920   -0.0140 C.ar      1 <0>        -0.1869
     12 C9          0.0021   -0.0041    0.0020 C.ar      1 <0>         0.0225
     13 C10         2.8349   -3.5569   -1.2620 C.2       1 <0>         0.0311
     14 N2          2.9140   -4.8282   -1.1346 N.2       1 <0>        -0.1710
     15 N3          3.0016   -5.6421   -2.2716 N.am      1 <0>        -0.5767
     16 C11         3.0850   -6.9806   -2.1374 C.2       1 <0>         0.5354
     17 O2          3.0841   -7.4805   -1.0322 O.2       1 <0>        -0.4818
     18 C12         3.1792   -7.8560   -3.3604 C.3       1 <0>        -0.0979
     19 C13         1.9396   -7.6485   -4.2329 C.3       1 <0>        -0.1115
     20 C14         2.0353   -8.5374   -5.4745 C.3       1 <0>        -0.1190
     21 C15         2.1181  -10.0040   -5.0467 C.3       1 <0>        -0.1255
     22 C16         3.3577  -10.2115   -4.1742 C.3       1 <0>        -0.1213
     23 C17         3.2620   -9.3227   -2.9325 C.3       1 <0>        -0.1021
     24 H2         -0.9651    1.8696    0.0259 H         1 <0>         0.1661
     25 H3          1.0989    3.1746    0.0082 H         1 <0>         0.1680
     26 H4          3.2779    2.1389   -0.0181 H         1 <0>         0.1712
     27 H5          0.4672   -2.6604   -0.0176 H         1 <0>         0.2030
     28 H6         -0.9201   -0.5662    0.0075 H         1 <0>         0.1762
     29 H7          2.8356   -3.1118   -2.2460 H         1 <0>         0.1353
     30 H8          3.0023   -5.2423   -3.1553 H         1 <0>         0.3971
     31 H9          4.0715   -7.5923   -3.9281 H         1 <0>         0.1071
     32 H10         1.0473   -7.9123   -3.6651 H         1 <0>         0.0727
     33 H11         1.8806   -6.6037   -4.5377 H         1 <0>         0.0629
     34 H12         1.1522   -8.3895   -6.0961 H         1 <0>         0.0706
     35 H13         2.9276   -8.2736   -6.0423 H         1 <0>         0.0672
     36 H14         1.2258  -10.2678   -4.4789 H         1 <0>         0.0652
     37 H15         2.1862  -10.6372   -5.9313 H         1 <0>         0.0687
     38 H16         3.4167  -11.2564   -3.8694 H         1 <0>         0.0725
     39 H17         4.2499   -9.9477   -4.7420 H         1 <0>         0.0655
     40 H18         4.1451   -9.4705   -2.3109 H         1 <0>         0.0739
     41 H19         2.3697   -9.5865   -2.3647 H         1 <0>         0.0742
     42 H20         4.5114    0.1434   -0.0393 H         1 <0>         0.4417
@<TRIPOS>BOND
     1    1   12 ar
     2    1    2 ar
     3    1   24 1
     4    2    3 ar
     5    2   25 1
     6    3    4 ar
     7    3   26 1
     8    4   11 ar
     9    4    5 2
    10    5    6 am
    11    5   42 1
    12    6    7 2
    13    6    8 1
    14    8    9 1
    15    8   10 1
    16    8   13 1
    17   10   11 2
    18   10   27 1
    19   11   12 ar
    20   12   28 1
    21   13   14 2
    22   13   29 1
    23   14   15 1
    24   15   16 am
    25   15   30 1
    26   16   17 2
    27   16   18 1
    28   18   23 1
    29   18   19 1
    30   18   31 1
    31   19   20 1
    32   19   32 1
    33   19   33 1
    34   20   21 1
    35   20   34 1
    36   20   35 1
    37   21   22 1
    38   21   36 1
    39   21   37 1
    40   22   23 1
    41   22   38 1
    42   22   39 1
    43   23   40 1
    44   23   41 1
@<TRIPOS>MOLECULE
ZINC54374775
   32    33     0     0     0
SMALL
USER_CHARGES

@<TRIPOS>ATOM
      1 C1         -0.0187    1.5258    0.0104 C.3       1 <0>        -0.1675
      2 C2          0.0021   -0.0041    0.0020 C.3       1 <0>         0.1492
      3 H1          0.5118   -0.3585   -0.8939 H         1 <0>         0.0952
      4 C3         -1.4338   -0.5386    0.0230 C.3       1 <0>        -0.0214
      5 N1         -1.4088   -2.0010    0.1526 N.4       1 <0>        -0.5035
      6 C4         -0.8278   -2.3784    1.4473 C.3       1 <0>        -0.0221
      7 C5          0.6381   -1.9351    1.4969 C.3       1 <0>         0.1146
      8 N2          0.7045   -0.4955    1.1975 N.pl3     1 <0>        -0.6794
      9 C6          1.4100    0.3801    2.0270 C.ar      1 <0>         0.2336
     10 C7          0.7714    0.9896    3.0993 C.ar      1 <0>        -0.1156
     11 C8          1.4717    1.8541    3.9176 C.ar      1 <0>        -0.0316
     12 C9          2.8074    2.1139    3.6703 C.ar      1 <0>        -0.0353
     13 C10         3.4467    1.5092    2.6039 C.ar      1 <0>        -0.0200
     14 C11         2.7537    0.6386    1.7844 C.ar      1 <0>        -0.1045
     15 Br1         3.6307   -0.1942    0.3308 Br        1 <0>        -0.0001
     16 N3          3.5540    3.0418    4.5490 N.pl3     1 <0>         0.0248
     17 O1          2.9962    3.5717    5.4816 O.2       1 <0>        -0.1384
     18 O2          4.7217    3.2700    4.3341 O.3       1 <0>        -0.1389
     19 H2          1.0039    1.9031    0.0027 H         1 <0>         0.0795
     20 H3         -0.5459    1.8868   -0.8726 H         1 <0>         0.0885
     21 H4         -0.5289    1.8773    0.9072 H         1 <0>         0.0739
     22 H5         -1.9696   -0.1078    0.8688 H         1 <0>         0.1348
     23 H6         -1.9372   -0.2645   -0.9041 H         1 <0>         0.1438
     24 H7         -2.3500   -2.3591    0.0906 H         1 <0>         0.4342
     25 H8         -1.3819   -1.8920    2.2500 H         1 <0>         0.1340
     26 H9         -0.8847   -3.4600    1.5697 H         1 <0>         0.1444
     27 H10         1.0438   -2.1218    2.4912 H         1 <0>         0.1193
     28 H11         1.2132   -2.4874    0.7537 H         1 <0>         0.0889
     29 H12        -0.2718    0.7879    3.2928 H         1 <0>         0.1545
     30 H13         0.9755    2.3283    4.7515 H         1 <0>         0.1668
     31 H14         4.4899    1.7143    2.4136 H         1 <0>         0.1689
     32 H15        -0.8523   -2.3940   -0.5917 H         1 <0>         0.4293
@<TRIPOS>BOND
     1    1    2 1
     2    1   19 1
     3    1   20 1
     4    1   21 1
     5    2    3 1
     6    2    8 1
     7    2    4 1
     8    4    5 1
     9    4   22 1
    10    4   23 1
    11    5    6 1
    12    5   24 1
    13    5   32 1
    14    6    7 1
    15    6   25 1
    16    6   26 1
    17    7    8 1
    18    7   27 1
    19    7   28 1
    20    8    9 1
    21    9   14 ar
    22    9   10 ar
    23   10   11 ar
    24   10   29 1
    25   11   12 ar
    26   11   30 1
    27   12   13 ar
    28   12   16 1
    29   13   14 ar
    30   13   31 1
    31   14   15 1
    32   16   17 2
    33   16   18 1
@<TRIPOS>MOLECULE
ZINC63480600
   45    47     0     0     0
SMALL
USER_CHARGES

@<TRIPOS>ATOM
      1 C1         -0.3377    1.6351    0.4718 C.3       1 <0>        -0.1554
      2 C2         -0.2772    0.1065    0.4469 C.3       1 <0>        -0.0929
      3 C3          0.3877   -0.3985    1.7290 C.3       1 <0>        -0.1508
      4 C4         -1.6959   -0.4585    0.3516 C.3       1 <0>        -0.1299
      5 C5         -2.3161   -0.0561   -0.9879 C.3       1 <0>         0.1122
      6 N1         -3.6745   -0.5971   -1.0793 N.am      1 <0>        -0.7064
      7 C6         -4.4186   -0.3680   -2.1794 C.2       1 <0>         0.5219
      8 O1         -3.9636    0.2860   -3.0938 O.2       1 <0>        -0.4973
      9 C7         -5.8159   -0.9246   -2.2734 C.3       1 <0>         0.0712
     10 H1         -6.4273   -0.5429   -1.4557 H         1 <0>         0.1979
     11 C8         -5.7784   -2.4349   -2.2342 C.2       1 <0>         0.0580
     12 C9         -6.3100   -2.8738   -3.3984 C.2       1 <0>        -0.2071
     13 C10        -6.7042   -1.7235   -4.2207 C.2       1 <0>         0.3725
     14 C11        -7.2828   -1.9902   -5.4822 C.ar      1 <0>        -0.1871
     15 C12        -7.6814   -0.9341   -6.3177 C.ar      1 <0>        -0.0279
     16 C13        -8.2377   -1.2046   -7.5322 C.ar      1 <0>        -0.1476
     17 C14        -8.4153   -2.5190   -7.9538 C.ar      1 <0>         0.0104
     18 C15        -8.0394   -3.5662   -7.1674 C.ar      1 <0>        -0.1770
     19 C16        -7.4616   -3.3296   -5.9073 C.ar      1 <0>         0.2755
     20 N2         -7.0958   -4.3680   -5.1435 N.am      1 <0>        -0.6128
     21 C17        -6.5460   -4.2288   -3.9477 C.2       1 <0>         0.5777
     22 O2         -6.2335   -5.2154   -3.2989 O.2       1 <0>        -0.4599
     23 N3         -6.4172   -0.5665   -3.5643 N.pl3     1 <0>        -0.4673
     24 C18        -6.6627    0.7915   -4.0559 C.3       1 <0>         0.0603
     25 H2          0.6730    2.0376    0.5397 H         1 <0>         0.0614
     26 H3         -0.8114    1.9949   -0.4416 H         1 <0>         0.0550
     27 H4         -0.9177    1.9618    1.3349 H         1 <0>         0.0575
     28 H5          0.3028   -0.2202   -0.4162 H         1 <0>         0.0751
     29 H6         -0.1923   -0.0718    2.5921 H         1 <0>         0.0573
     30 H7          0.4308   -1.4875    1.7113 H         1 <0>         0.0568
     31 H8          1.3984    0.0040    1.7969 H         1 <0>         0.0614
     32 H9         -1.6596   -1.5455    0.4232 H         1 <0>         0.0745
     33 H10        -2.3010   -0.0607    1.1662 H         1 <0>         0.0754
     34 H11        -2.3524    1.0309   -1.0596 H         1 <0>         0.0837
     35 H12        -1.7111   -0.4540   -1.8026 H         1 <0>         0.0793
     36 H13        -4.0384   -1.1203   -0.3479 H         1 <0>         0.4096
     37 H14        -5.3992   -3.0476   -1.4296 H         1 <0>         0.2181
     38 H15        -7.5479    0.0891   -5.9988 H         1 <0>         0.1469
     39 H16        -8.5440   -0.3912   -8.1733 H         1 <0>         0.1522
     40 H17        -8.8584   -2.7121   -8.9196 H         1 <0>         0.1559
     41 H18        -8.1853   -4.5792   -7.5121 H         1 <0>         0.1597
     42 H19        -6.3398    1.5135   -3.3059 H         1 <0>         0.1189
     43 H20        -6.1036    0.9508   -4.9779 H         1 <0>         0.1132
     44 H21        -7.7275    0.9207   -4.2498 H         1 <0>         0.1104
     45 H22        -7.2410   -5.2648   -5.4834 H         1 <0>         0.4395
@<TRIPOS>BOND
     1    1    2 1
     2    1   25 1
     3    1   26 1
     4    1   27 1
     5    2    3 1
     6    2    4 1
     7    2   28 1
     8    3   29 1
     9    3   30 1
    10    3   31 1
    11    4    5 1
    12    4   32 1
    13    4   33 1
    14    5    6 1
    15    5   34 1
    16    5   35 1
    17    6    7 am
    18    6   36 1
    19    7    8 2
    20    7    9 1
    21    9   10 1
    22    9   23 1
    23    9   11 1
    24   11   12 2
    25   11   37 1
    26   12   21 1
    27   12   13 1
    28   13   14 2
    29   13   23 1
    30   14   19 ar
    31   14   15 ar
    32   15   16 ar
    33   15   38 1
    34   16   17 ar
    35   16   39 1
    36   17   18 ar
    37   17   40 1
    38   18   19 ar
    39   18   41 1
    40   19   20 2
    41   20   21 am
    42   20   45 1
    43   21   22 2
    44   23   24 1
    45   24   42 1
    46   24   43 1
    47   24   44 1
@<TRIPOS>MOLECULE
ZINC03593513
   46    48     0     0     0
SMALL
USER_CHARGES
2-[4-(2-chlorophenyl)-4-methyl-2,5-dioxo-imidazolidin-1-yl]-N-(2-methyl-3-nitro-phenyl)-acetamide
@<TRIPOS>ATOM
      1 C1         -1.1740    2.2381   -1.1490 C.3       1 <0>        -0.1273
      2 C2          0.0133    1.5724   -0.5025 C.ar      1 <0>        -0.0459
      3 C3          1.0742    2.3402   -0.0398 C.ar      1 <0>         0.1472
      4 C4          2.1690    1.7226    0.5501 C.ar      1 <0>        -0.0685
      5 C5          2.2001    0.3472    0.6747 C.ar      1 <0>        -0.1012
      6 C6          1.1424   -0.4143    0.2131 C.ar      1 <0>        -0.0654
      7 C7          0.0503    0.1979   -0.3746 C.ar      1 <0>        -0.0263
      8 N1         -1.0798   -0.6211   -0.8674 N.pl3     1 <0>         0.0272
      9 O1         -2.1997   -0.1450   -0.9195 O.2       1 <0>        -0.1491
     10 O2         -0.8899   -1.7711   -1.2208 O.3       1 <0>        -0.1563
     11 N2          1.0401    3.7331   -0.1683 N.am      1 <0>        -0.6646
     12 C8          2.1790    4.4171   -0.3953 C.2       1 <0>         0.5056
     13 O3          3.2418    3.8333   -0.4222 O.2       1 <0>        -0.5015
     14 C9          2.1319    5.9071   -0.6156 C.3       1 <0>         0.1033
     15 N3          3.4894    6.4108   -0.8391 N.am      1 <0>        -0.5633
     16 C10         4.3078    6.8420    0.1410 C.2       1 <0>         0.5380
     17 O4          4.0687    6.8845    1.3288 O.2       1 <0>        -0.4352
     18 C11         5.5900    7.2608   -0.5504 C.3       1 <0>         0.1734
     19 N4          5.3170    6.9992   -1.9742 N.am      1 <0>        -0.7147
     20 C12         4.0676    6.5050   -2.0419 C.2       1 <0>         0.7118
     21 O5          3.5248    6.1804   -3.0797 O.2       1 <0>        -0.5334
     22 C13         6.7718    6.4187   -0.0654 C.3       1 <0>        -0.1619
     23 C14         5.8563    8.7264   -0.3222 C.ar      1 <0>        -0.0969
     24 C15         5.8506    9.6046   -1.3898 C.ar      1 <0>        -0.0895
     25 C16         6.0953   10.9488   -1.1806 C.ar      1 <0>        -0.1125
     26 C17         6.3450   11.4160    0.0964 C.ar      1 <0>        -0.0946
     27 C18         6.3505   10.5392    1.1646 C.ar      1 <0>        -0.1074
     28 C19         6.1009    9.1942    0.9565 C.ar      1 <0>        -0.0188
     29 Cl1         6.1006    8.0932    2.2987 Cl        1 <0>        -0.0338
     30 H1         -1.9612    2.3765   -0.4078 H         1 <0>         0.0973
     31 H2         -0.8749    3.2079   -1.5467 H         1 <0>         0.0737
     32 H3         -1.5449    1.6115   -1.9601 H         1 <0>         0.0866
     33 H4          2.9957    2.3168    0.9106 H         1 <0>         0.1574
     34 H5          3.0516   -0.1338    1.1328 H         1 <0>         0.1529
     35 H6          1.1693   -1.4895    0.3113 H         1 <0>         0.1533
     36 H7          0.1967    4.2065   -0.0940 H         1 <0>         0.4192
     37 H8          1.5151    6.1262   -1.4872 H         1 <0>         0.1367
     38 H9          1.7048    6.3910    0.2627 H         1 <0>         0.1350
     39 H10         5.9205    7.1528   -2.7178 H         1 <0>         0.4431
     40 H11         7.6620    6.6778   -0.6385 H         1 <0>         0.0831
     41 H12         6.9497    6.6170    0.9915 H         1 <0>         0.0984
     42 H13         6.5456    5.3615   -0.2037 H         1 <0>         0.0768
     43 H14         5.6552    9.2402   -2.3875 H         1 <0>         0.1349
     44 H15         6.0911   11.6344   -2.0151 H         1 <0>         0.1355
     45 H16         6.5354   12.4666    0.2593 H         1 <0>         0.1376
     46 H17         6.5453   10.9044    2.1621 H         1 <0>         0.1404
@<TRIPOS>BOND
     1    1    2 1
     2    1   30 1
     3    1   31 1
     4    1   32 1
     5    2    7 ar
     6    2    3 ar
     7    3    4 ar
     8    3   11 1
     9    4    5 ar
    10    4   33 1
    11    5    6 ar
    12    5   34 1
    13    6    7 ar
    14    6   35 1
    15    7    8 1
    16    8    9 2
    17    8   10 1
    18   11   12 am
    19   11   36 1
    20   12   13 2
    21   12   14 1
    22   14   15 1
    23   14   37 1
    24   14   38 1
    25   15   20 am
    26   15   16 am
    27   16   17 2
    28   16   18 1
    29   18   19 1
    30   18   22 1
    31   18   23 1
    32   19   20 am
    33   19   39 1
    34   20   21 2
    35   22   40 1
    36   22   41 1
    37   22   42 1
    38   23   28 ar
    39   23   24 ar
    40   24   25 ar
    41   24   43 1
    42   25   26 ar
    43   25   44 1
    44   26   27 ar
    45   26   45 1
    46   27   28 ar
    47   27   46 1
    48   28   29 1
@<TRIPOS>MOLECULE
ZINC12378791
   46    48     0     0     0
SMALL
USER_CHARGES
N-(4-chlorophenyl)-2-[(2Z,5S)-4-hydroxy-2-[(Z)-1-(4-nitrophenyl)ethylidenehydrazono]-5H-thiazol-5-yl]acetamide
@<TRIPOS>ATOM
      1 C1          5.2143   -2.3561    4.4110 C.3       1 <0>        -0.1047
      2 C2          5.5766   -1.1104    3.6441 C.2       1 <0>         0.1770
      3 N1          4.7229   -0.6115    2.7243 N.2       1 <0>        -0.3187
      4 N2          5.0810    0.3826    1.9842 N.2       1 <0>        -0.3294
      5 C3          4.2149    0.8888    1.0509 C.2       1 <0>         0.3920
      6 N3          4.4213    1.9021    0.2132 N.2       1 <0>        -0.5982
      7 C4          3.5533    2.3275   -0.6450 C.2       1 <0>         0.4475
      8 C5          2.2334    1.5657   -0.6331 C.3       1 <0>        -0.0508
      9 H1          2.0508    1.0690   -1.5860 H         1 <0>         0.1678
     10 S1          2.6014    0.3522    0.6966 S.3       1 <0>        -0.0965
     11 C6          1.0655    2.4771   -0.2504 C.3       1 <0>        -0.1173
     12 C7         -0.2001    1.6633   -0.1663 C.2       1 <0>         0.5169
     13 O1         -0.1708    0.4716   -0.3903 O.2       1 <0>        -0.5003
     14 N4         -1.3654    2.2607    0.1525 N.am      1 <0>        -0.6693
     15 C8         -2.5567    1.5260    0.1330 C.ar      1 <0>         0.1443
     16 C9         -3.7397    2.1300   -0.2719 C.ar      1 <0>        -0.1295
     17 C10        -4.9128    1.4015   -0.2951 C.ar      1 <0>        -0.0917
     18 C11        -4.9122    0.0740    0.0955 C.ar      1 <0>        -0.0466
     19 C12        -3.7355   -0.5289    0.5044 C.ar      1 <0>        -0.0911
     20 C13        -2.5587    0.1936    0.5241 C.ar      1 <0>        -0.1058
     21 Cl1        -6.3898   -0.8370    0.0720 Cl        1 <0>        -0.0664
     22 O2          3.7937    3.3507   -1.4746 O.3       1 <0>        -0.4233
     23 C14         6.8000   -0.4694    3.8857 C.ar      1 <0>        -0.0309
     24 C15         7.9439   -1.2239    4.2387 C.ar      1 <0>        -0.0934
     25 C16         9.1289   -0.5876    4.4662 C.ar      1 <0>        -0.0533
     26 C17         9.2133    0.7953    4.3632 C.ar      1 <0>         0.0005
     27 C18         8.0971    1.5489    4.0226 C.ar      1 <0>        -0.0515
     28 C19         6.9006    0.9384    3.7844 C.ar      1 <0>        -0.0680
     29 N5         10.5051    1.4721    4.6183 N.pl3     1 <0>        -0.0202
     30 O3         10.5922    2.7827    4.5220 O.2       1 <0>        -0.1708
     31 O4         11.5672    0.7636    4.9416 O.3       1 <0>        -0.1686
     32 H2          5.5720   -3.2324    3.8705 H         1 <0>         0.0926
     33 H3          5.6775   -2.3233    5.3971 H         1 <0>         0.0857
     34 H4          4.1313   -2.4135    4.5201 H         1 <0>         0.0886
     35 H5          0.9483    3.2541   -1.0059 H         1 <0>         0.1316
     36 H6          1.2661    2.9380    0.7167 H         1 <0>         0.1147
     37 H7         -1.3785    3.1997    0.3954 H         1 <0>         0.4154
     38 H8         -3.7417    3.1674   -0.5723 H         1 <0>         0.1366
     39 H9         -5.8323    1.8695   -0.6145 H         1 <0>         0.1391
     40 H10        -3.7375   -1.5653    0.8081 H         1 <0>         0.1384
     41 H11        -1.6406   -0.2774    0.8430 H         1 <0>         0.1487
     42 H12         4.6608    3.7738   -1.4101 H         1 <0>         0.4331
     43 H13         7.8801   -2.2987    4.3236 H         1 <0>         0.1567
     44 H14        10.0046   -1.1612    4.7318 H         1 <0>         0.1594
     45 H15         8.1768    2.6233    3.9465 H         1 <0>         0.1565
     46 H16         6.0345    1.5267    3.5195 H         1 <0>         0.1532
@<TRIPOS>BOND
     1    1    2 1
     2    1   32 1
     3    1   33 1
     4    1   34 1
     5    2    3 2
     6    2   23 1
     7    3    4 1
     8    4    5 2
     9    5   10 1
    10    5    6 1
    11    6    7 2
    12    7    8 1
    13    7   22 1
    14    8    9 1
    15    8   10 1
    16    8   11 1
    17   11   12 1
    18   11   35 1
    19   11   36 1
    20   12   13 2
    21   12   14 am
    22   14   15 1
    23   14   37 1
    24   15   20 ar
    25   15   16 ar
    26   16   17 ar
    27   16   38 1
    28   17   18 ar
    29   17   39 1
    30   18   19 ar
    31   18   21 1
    32   19   20 ar
    33   19   40 1
    34   20   41 1
    35   22   42 1
    36   23   28 ar
    37   23   24 ar
    38   24   25 ar
    39   24   43 1
    40   25   26 ar
    41   25   44 1
    42   26   27 ar
    43   26   29 1
    44   27   28 ar
    45   27   45 1
    46   28   46 1
    47   29   30 2
    48   29   31 1
@<TRIPOS>MOLECULE
ZINC16925358
   40    42     0     0     0
SMALL
USER_CHARGES
2-[(5R)-3-(4-chlorophenyl)-2,4-dioxo-thiazolidin-5-yl]-N-(2-hydroxy-4-nitro-phenyl)acetamide
@<TRIPOS>ATOM
      1 C1          5.2272    4.6141    0.4671 C.ar      1 <0>        -0.0783
      2 C2          6.4531    5.2436    0.3746 C.ar      1 <0>        -0.0974
      3 C3          6.5420    6.6149    0.5374 C.ar      1 <0>        -0.0215
      4 C4          5.4028    7.3594    0.7884 C.ar      1 <0>        -0.0959
      5 C5          4.1740    6.7350    0.8766 C.ar      1 <0>        -0.0834
      6 C6          4.0822    5.3595    0.7131 C.ar      1 <0>         0.0933
      7 N1          2.8357    4.7233    0.8021 N.am      1 <0>        -0.5339
      8 C7          2.4294    3.9927   -0.2225 C.2       1 <0>         0.5273
      9 O1          3.0953    3.8577   -1.2266 O.2       1 <0>        -0.4395
     10 C8          1.0683    3.3327   -0.0543 C.3       1 <0>        -0.0680
     11 H1          0.3584    3.6925   -0.7991 H         1 <0>         0.1739
     12 S1          0.6344    3.9306    1.6279 S.3       1 <0>        -0.1104
     13 C9          2.1138    4.8870    1.9263 C.2       1 <0>         0.5521
     14 O2          2.4014    5.5344    2.9143 O.2       1 <0>        -0.3998
     15 C10         1.1812    1.8073   -0.0907 C.3       1 <0>        -0.1207
     16 C11        -0.1973    1.2002   -0.0443 C.2       1 <0>         0.5216
     17 O3         -1.1743    1.9173    0.0073 O.2       1 <0>        -0.4990
     18 N2         -0.3449   -0.1392   -0.0657 N.am      1 <0>        -0.6638
     19 C12        -1.6205   -0.7057    0.0590 C.ar      1 <0>         0.1750
     20 C13        -2.7230   -0.0629   -0.4847 C.ar      1 <0>        -0.1083
     21 C14        -3.9793   -0.6264   -0.3654 C.ar      1 <0>        -0.0395
     22 C15        -4.1424   -1.8250    0.3046 C.ar      1 <0>        -0.0431
     23 C16        -3.0492   -2.4682    0.8544 C.ar      1 <0>        -0.0621
     24 C17        -1.7856   -1.9128    0.7342 C.ar      1 <0>         0.0864
     25 O4         -0.7094   -2.5443    1.2745 O.3       1 <0>        -0.4811
     26 N3         -5.4913   -2.4206    0.4339 N.pl3     1 <0>         0.0282
     27 O5         -5.6369   -3.4761    1.0241 O.2       1 <0>        -0.1563
     28 O6         -6.4556   -1.8553   -0.0499 O.3       1 <0>        -0.1526
     29 Cl1         8.0851    7.4025    0.4271 Cl        1 <0>        -0.0537
     30 H2          5.1589    3.5433    0.3440 H         1 <0>         0.1379
     31 H3          7.3435    4.6647    0.1787 H         1 <0>         0.1463
     32 H4          5.4747    8.4294    0.9158 H         1 <0>         0.1468
     33 H5          3.2852    7.3164    1.0728 H         1 <0>         0.1388
     34 H6          1.7580    1.4650    0.7686 H         1 <0>         0.1223
     35 H7          1.6820    1.5019   -1.0094 H         1 <0>         0.1365
     36 H8          0.4319   -0.7112   -0.1674 H         1 <0>         0.4253
     37 H9         -2.5991    0.8754   -1.0050 H         1 <0>         0.1688
     38 H10        -4.8363   -0.1272   -0.7927 H         1 <0>         0.1625
     39 H11        -3.1801   -3.4040    1.3774 H         1 <0>         0.1656
     40 H12        -0.5197   -2.2872    2.1872 H         1 <0>         0.3996
@<TRIPOS>BOND
     1    1    6 ar
     2    1    2 ar
     3    1   30 1
     4    2    3 ar
     5    2   31 1
     6    3    4 ar
     7    3   29 1
     8    4    5 ar
     9    4   32 1
    10    5    6 ar
    11    5   33 1
    12    6    7 1
    13    7   13 am
    14    7    8 am
    15    8    9 2
    16    8   10 1
    17   10   11 1
    18   10   12 1
    19   10   15 1
    20   12   13 1
    21   13   14 2
    22   15   16 1
    23   15   34 1
    24   15   35 1
    25   16   17 2
    26   16   18 am
    27   18   19 1
    28   18   36 1
    29   19   24 ar
    30   19   20 ar
    31   20   21 ar
    32   20   37 1
    33   21   22 ar
    34   21   38 1
    35   22   23 ar
    36   22   26 1
    37   23   24 ar
    38   23   39 1
    39   24   25 1
    40   25   40 1
    41   26   27 2
    42   26   28 1
@<TRIPOS>MOLECULE
ZINC36490863
   64    66     0     0     0
SMALL
USER_CHARGES

@<TRIPOS>ATOM
      1 C1         -1.0406    0.9119   -0.3882 C.3       1 <0>        -0.1649
      2 C2         -0.8613   -0.6030   -0.5063 C.3       1 <0>         0.1706
      3 C3         -0.3152   -1.1562    0.8115 C.3       1 <0>        -0.1652
      4 C4         -2.2117   -1.2540   -0.8122 C.3       1 <0>        -0.1576
      5 N1          0.0804   -0.9004   -1.5884 N.am      1 <0>        -0.7162
      6 C5          1.3410   -0.4266   -1.5339 C.2       1 <0>         0.5029
      7 O1          1.6957    0.2460   -0.5890 O.2       1 <0>        -0.5002
      8 C6          2.3098   -0.7325   -2.6470 C.3       1 <0>         0.1505
      9 H1          1.9207   -0.3384   -3.5858 H         1 <0>         0.1302
     10 C7          2.4864   -2.2246   -2.7633 C.ar      1 <0>        -0.0570
     11 C8          2.4312   -2.8325   -4.0036 C.ar      1 <0>        -0.0998
     12 C9          2.5931   -4.2011   -4.1103 C.ar      1 <0>        -0.0495
     13 C10         2.8108   -4.9619   -2.9768 C.ar      1 <0>        -0.0362
     14 C11         2.8669   -4.3538   -1.7367 C.ar      1 <0>        -0.0480
     15 C12         2.7092   -2.9846   -1.6304 C.ar      1 <0>        -0.0979
     16 N2          2.9833   -6.4275   -3.0910 N.pl3     1 <0>         0.0289
     17 O2          2.9338   -6.9593   -4.1756 O.2       1 <0>        -0.1502
     18 O3          3.1736   -7.0928   -2.0997 O.3       1 <0>        -0.1514
     19 N3          3.6028   -0.1091   -2.3542 N.am      1 <0>        -0.5823
     20 C13         4.3761   -0.5399   -1.1869 C.3       1 <0>         0.1579
     21 C14         4.6875    0.6716   -0.3059 C.3       1 <0>        -0.1375
     22 C15         5.4951    0.2216    0.9132 C.3       1 <0>        -0.1134
     23 C16         6.8036   -0.4213    0.4490 C.3       1 <0>        -0.1221
     24 C17         6.4922   -1.6329   -0.4319 C.3       1 <0>        -0.1133
     25 C18         5.6846   -1.1829   -1.6510 C.3       1 <0>        -0.1326
     26 C19         4.0808    0.8608   -3.1586 C.2       1 <0>         0.5071
     27 O4          5.1083    1.4368   -2.8696 O.2       1 <0>        -0.4949
     28 C20         3.3387    1.2297   -4.4173 C.3       1 <0>         0.1080
     29 H2          2.2634    1.2085   -4.2405 H         1 <0>         0.1080
     30 C21         3.7116    0.2607   -5.5612 C.3       1 <0>        -0.1265
     31 C22         4.8651    1.0214   -6.2553 C.3       1 <0>        -0.1555
     32 C23         4.6147    2.4723   -5.9079 C.2       1 <0>         0.5285
     33 O5          5.1177    3.4192   -6.4748 O.2       1 <0>        -0.5209
     34 N4          3.7514    2.5604   -4.8787 N.am      1 <0>        -0.7107
     35 H3         -0.0786    1.3757   -0.1704 H         1 <0>         0.0781
     36 H4         -1.4297    1.3060   -1.3271 H         1 <0>         0.0548
     37 H5         -1.7413    1.1331    0.4169 H         1 <0>         0.0659
     38 H6         -1.0159   -0.9349    1.6166 H         1 <0>         0.0663
     39 H7         -0.1875   -2.2354    0.7273 H         1 <0>         0.0544
     40 H8          0.6468   -0.6924    1.0293 H         1 <0>         0.0781
     41 H9         -2.6007   -0.8599   -1.7510 H         1 <0>         0.0635
     42 H10        -2.0839   -2.3333   -0.8963 H         1 <0>         0.0627
     43 H11        -2.9123   -1.0328   -0.0071 H         1 <0>         0.0769
     44 H12        -0.2032   -1.4383   -2.3441 H         1 <0>         0.3998
     45 H13         2.2611   -2.2381   -4.8892 H         1 <0>         0.1527
     46 H14         2.5493   -4.6762   -5.0793 H         1 <0>         0.1603
     47 H15         3.0365   -4.9482   -0.8510 H         1 <0>         0.1577
     48 H16         2.7567   -2.5091   -0.6619 H         1 <0>         0.1486
     49 H17         3.7974   -1.2656   -0.6154 H         1 <0>         0.0860
     50 H18         5.2662    1.3973   -0.8774 H         1 <0>         0.0887
     51 H19         3.7553    1.1296    0.0247 H         1 <0>         0.0767
     52 H20         5.7170    1.0847    1.5408 H         1 <0>         0.0639
     53 H21         4.9164   -0.5041    1.4847 H         1 <0>         0.0574
     54 H22         7.3823    0.3043   -0.1225 H         1 <0>         0.0643
     55 H23         7.3790   -0.7419    1.3175 H         1 <0>         0.0619
     56 H24         7.4244   -2.0909   -0.7626 H         1 <0>         0.0651
     57 H25         5.9135   -2.3585    0.1396 H         1 <0>         0.0595
     58 H26         5.4627   -2.0460   -2.2786 H         1 <0>         0.0561
     59 H27         6.2632   -0.4572   -2.2225 H         1 <0>         0.0786
     60 H28         4.0566   -0.6948   -5.1661 H         1 <0>         0.0950
     61 H29         2.8722    0.1195   -6.2420 H         1 <0>         0.1017
     62 H30         5.8281    0.6957   -5.8619 H         1 <0>         0.1094
     63 H31         4.8237    0.8749   -7.3346 H         1 <0>         0.1109
     64 H32         3.4415    3.3942   -4.4919 H         1 <0>         0.4163
@<TRIPOS>BOND
     1    1    2 1
     2    1   35 1
     3    1   36 1
     4    1   37 1
     5    2    3 1
     6    2    4 1
     7    2    5 1
     8    3   38 1
     9    3   39 1
    10    3   40 1
    11    4   41 1
    12    4   42 1
    13    4   43 1
    14    5    6 am
    15    5   44 1
    16    6    7 2
    17    6    8 1
    18    8    9 1
    19    8   10 1
    20    8   19 1
    21   10   15 ar
    22   10   11 ar
    23   11   12 ar
    24   11   45 1
    25   12   13 ar
    26   12   46 1
    27   13   14 ar
    28   13   16 1
    29   14   15 ar
    30   14   47 1
    31   15   48 1
    32   16   17 2
    33   16   18 1
    34   19   20 1
    35   19   26 am
    36   20   25 1
    37   20   21 1
    38   20   49 1
    39   21   22 1
    40   21   50 1
    41   21   51 1
    42   22   23 1
    43   22   52 1
    44   22   53 1
    45   23   24 1
    46   23   54 1
    47   23   55 1
    48   24   25 1
    49   24   56 1
    50   24   57 1
    51   25   58 1
    52   25   59 1
    53   26   27 2
    54   26   28 1
    55   28   29 1
    56   28   34 1
    57   28   30 1
    58   30   31 1
    59   30   60 1
    60   30   61 1
    61   31   32 1
    62   31   62 1
    63   31   63 1
    64   32   33 2
    65   32   34 am
    66   34   64 1
@<TRIPOS>MOLECULE
ZINC57675991
   52    55     0     0     0
SMALL
USER_CHARGES

@<TRIPOS>ATOM
      1 C1          0.0845    1.5448    0.0199 C.ar      1 <0>        -0.0246
      2 C2          1.3356    2.0576    0.2827 C.ar      1 <0>        -0.1108
      3 C3          2.4487    1.2250    0.2608 C.ar      1 <0>         0.2157
      4 C4          2.3036   -0.1279   -0.0263 C.ar      1 <0>        -0.0490
      5 C5          1.0560   -0.6476   -0.2900 C.ar      1 <0>         0.0184
      6 C6         -0.0650    0.1862   -0.2689 C.ar      1 <0>        -0.1166
      7 C7         -1.4045   -0.3673   -0.5511 C.2       1 <0>         0.5653
      8 O1         -1.5330   -1.5499   -0.8023 O.2       1 <0>        -0.5148
      9 N1         -2.4847    0.4384   -0.5303 N.am      1 <0>        -0.5094
     10 N2         -3.7556   -0.0868   -0.7981 N.am      1 <0>        -0.5167
     11 C8         -4.8358    0.7189   -0.7773 C.2       1 <0>         0.6160
     12 O2         -4.7072    1.9027   -0.5258 O.2       1 <0>        -0.5232
     13 C9         -6.1656    0.1694   -1.0575 C.2       1 <0>        -0.2603
     14 C10        -7.3841    0.8112   -1.0928 C.2       1 <0>        -0.0435
     15 C11        -8.5083    0.0255   -1.3642 C.2       1 <0>        -0.1374
     16 C12        -8.3039   -1.2954   -1.5266 C.2       1 <0>        -0.1515
     17 S1         -6.6332   -1.5027   -1.4500 S.3       1 <0>         0.1707
     18 C13        -9.2493   -2.4627   -1.6679 C.3       1 <0>        -0.0472
     19 C14       -10.7152   -2.0353   -1.5928 C.3       1 <0>        -0.1212
     20 C15       -11.1815   -1.4581   -2.9191 C.3       1 <0>        -0.1226
     21 C16       -10.1197   -0.6210   -3.6034 C.3       1 <0>        -0.1319
     22 C17       -10.2060    0.7851   -3.0010 C.3       1 <0>        -0.1161
     23 C18        -9.8597    0.7089   -1.5142 C.3       1 <0>        -0.0703
     24 N3          3.4918   -1.0103   -0.0490 N.pl3     1 <0>         0.0219
     25 O3          4.5426   -0.5983   -0.4825 O.2       1 <0>        -0.1244
     26 O4          3.4116   -2.1430    0.3660 O.3       1 <0>        -0.1308
     27 N4          3.7175    1.7494    0.5277 N.pl3     1 <0>        -0.4398
     28 C19         4.3224    2.7932   -0.1251 C.2       1 <0>        -0.0391
     29 C20         5.5280    2.9655    0.4488 C.2       1 <0>        -0.0082
     30 N5          5.6615    2.0555    1.4254 N.2       1 <0>        -0.4653
     31 C21         4.5820    1.3251    1.4867 C.2       1 <0>         0.2038
     32 H1         -0.7804    2.1913    0.0415 H         1 <0>         0.1585
     33 H2          1.4520    3.1079    0.5057 H         1 <0>         0.1669
     34 H3          0.9442   -1.6983   -0.5133 H         1 <0>         0.1751
     35 H4         -2.3822    1.3819   -0.3299 H         1 <0>         0.4341
     36 H5         -3.8581   -1.0303   -0.9985 H         1 <0>         0.4350
     37 H6         -7.4673    1.8738   -0.9182 H         1 <0>         0.1490
     38 H7         -9.0713   -2.9472   -2.6279 H         1 <0>         0.0864
     39 H8         -9.0487   -3.1783   -0.8705 H         1 <0>         0.0865
     40 H9        -11.3284   -2.9013   -1.3437 H         1 <0>         0.0736
     41 H10       -10.8289   -1.2811   -0.8141 H         1 <0>         0.0776
     42 H11       -11.4621   -2.2782   -3.5799 H         1 <0>         0.0587
     43 H12       -12.0591   -0.8362   -2.7425 H         1 <0>         0.0650
     44 H13        -9.1333   -1.0459   -3.4173 H         1 <0>         0.0754
     45 H14       -10.3120   -0.5793   -4.6755 H         1 <0>         0.0642
     46 H15        -9.4996    1.4431   -3.5071 H         1 <0>         0.0608
     47 H16       -11.2180    1.1720   -3.1208 H         1 <0>         0.0697
     48 H17       -10.6217    0.1318   -0.9902 H         1 <0>         0.0884
     49 H18        -9.8090    1.7152   -1.0983 H         1 <0>         0.0722
     50 H19         3.9109    3.3662   -0.9427 H         1 <0>         0.1835
     51 H20         6.2613    3.7079    0.1705 H         1 <0>         0.1813
     52 H21         4.4062    0.5168    2.1811 H         1 <0>         0.2010
@<TRIPOS>BOND
     1    1    6 ar
     2    1    2 ar
     3    1   32 1
     4    2    3 ar
     5    2   33 1
     6    3    4 ar
     7    3   27 1
     8    4    5 ar
     9    4   24 1
    10    5    6 ar
    11    5   34 1
    12    6    7 1
    13    7    8 2
    14    7    9 am
    15    9   10 1
    16    9   35 1
    17   10   11 am
    18   10   36 1
    19   11   12 2
    20   11   13 1
    21   13   17 1
    22   13   14 2
    23   14   15 1
    24   14   37 1
    25   15   23 1
    26   15   16 2
    27   16   17 1
    28   16   18 1
    29   18   19 1
    30   18   38 1
    31   18   39 1
    32   19   20 1
    33   19   40 1
    34   19   41 1
    35   20   21 1
    36   20   42 1
    37   20   43 1
    38   21   22 1
    39   21   44 1
    40   21   45 1
    41   22   23 1
    42   22   46 1
    43   22   47 1
    44   23   48 1
    45   23   49 1
    46   24   25 2
    47   24   26 1
    48   27   31 1
    49   27   28 1
    50   28   29 2
    51   28   50 1
    52   29   30 1
    53   29   51 1
    54   30   31 2
    55   31   52 1
@<TRIPOS>MOLECULE
ZINC08983496
   63    67     0     0     0
SMALL
USER_CHARGES
5-(2,6-dioxabicyclo[5.4.0]undeca-8,10,12-trien-9-yl)-1-(hydroxymethyl)-5-methyl-3-[(4-pyrimidin-2-ylpiperazin-1-yl)methyl]imidazolidine-2,4-dione
@<TRIPOS>ATOM
      1 C1         -2.4189    9.9689   -1.9559 C.3       1 <0>        -0.1477
      2 C2         -1.8864    8.5632   -2.2414 C.3       1 <0>         0.1787
      3 C3         -0.9476    8.1145   -1.1392 C.2       1 <0>         0.5344
      4 O1         -1.2133    7.9680    0.0346 O.2       1 <0>        -0.4216
      5 N1          0.2442    7.9130   -1.7353 N.am      1 <0>        -0.5995
      6 C4          0.1906    8.1742   -3.0464 C.2       1 <0>         0.7024
      7 O2          1.1418    8.0692   -3.7956 O.2       1 <0>        -0.5109
      8 N2         -1.0347    8.5624   -3.4434 N.am      1 <0>        -0.5936
      9 C5         -1.4416    8.9192   -4.8047 C.3       1 <0>         0.3291
     10 O3         -0.9271   10.2114   -5.1325 O.3       1 <0>        -0.5817
     11 C6          1.4509    7.4690   -1.0332 C.3       1 <0>         0.2381
     12 C7          2.3042    5.4999    0.0890 C.3       1 <0>         0.0032
     13 C8          2.4077    3.9755    0.0000 C.3       1 <0>         0.0428
     14 N3          1.0580    3.3941    0.0097 N.pl3     1 <0>        -0.4618
     15 C9          0.2637    3.8954   -1.1205 C.3       1 <0>         0.0458
     16 C10         0.1602    5.4198   -1.0315 C.3       1 <0>        -0.0059
     17 C11         1.1136    2.0112    0.0022 C.ar      1 <0>         0.4756
     18 N4         -0.0159    1.3185    0.0093 N.ar      1 <0>        -0.5226
     19 C12         0.0021   -0.0041    0.0020 C.ar      1 <0>         0.1797
     20 C13         1.2210   -0.6637   -0.0132 C.ar      1 <0>        -0.2368
     21 C14         2.3831    0.0917   -0.0202 C.ar      1 <0>         0.1777
     22 N5          2.2949    1.4115   -0.0123 N.ar      1 <0>        -0.5498
     23 C15        -3.0249    7.5883   -2.3977 C.ar      1 <0>        -0.1102
     24 C16        -3.1982    6.9173   -3.5940 C.ar      1 <0>        -0.1031
     25 C17        -4.2407    6.0204   -3.7447 C.ar      1 <0>        -0.1107
     26 C18        -5.1110    5.7965   -2.6913 C.ar      1 <0>         0.0888
     27 C19        -4.9373    6.4701   -1.4908 C.ar      1 <0>         0.0785
     28 C20        -3.8899    7.3634   -1.3417 C.ar      1 <0>        -0.0905
     29 O4         -5.8008    6.2425   -0.4589 O.3       1 <0>        -0.3158
     30 C21        -7.1381    6.7092   -0.6490 C.3       1 <0>         0.0599
     31 C22        -7.9621    5.6874   -1.4166 C.3       1 <0>        -0.1914
     32 C23        -7.4540    5.4817   -2.8350 C.3       1 <0>         0.0606
     33 O5         -6.1427    4.9135   -2.8262 O.3       1 <0>        -0.3181
     34 H1         -1.5833   10.6635   -1.8704 H         1 <0>         0.0792
     35 H2         -3.0706   10.2831   -2.7712 H         1 <0>         0.0919
     36 H3         -2.9822    9.9614   -1.0228 H         1 <0>         0.0924
     37 H4         -1.0487    8.1830   -5.5061 H         1 <0>         0.0846
     38 H5         -2.5298    8.9351   -4.8663 H         1 <0>         0.0923
     39 H6         -1.1582   10.5128   -6.0218 H         1 <0>         0.4079
     40 H7          1.4244    7.8260   -0.0037 H         1 <0>         0.1680
     41 H8          2.3315    7.8707   -1.5346 H         1 <0>         0.1680
     42 H9          1.8201    5.7775    1.0253 H         1 <0>         0.1466
     43 H10         3.3030    5.9349    0.0528 H         1 <0>         0.1497
     44 H11         2.9720    3.5989    0.8532 H         1 <0>         0.1391
     45 H12         2.9163    3.6985   -0.9233 H         1 <0>         0.0812
     46 H13         0.7478    3.6178   -2.0568 H         1 <0>         0.0708
     47 H14        -0.7351    3.4604   -1.0843 H         1 <0>         0.1407
     48 H15        -0.3483    5.6965   -0.1080 H         1 <0>         0.1502
     49 H16        -0.4042    5.7967   -1.8844 H         1 <0>         0.1253
     50 H17        -0.9219   -0.5632    0.0082 H         1 <0>         0.1796
     51 H18         1.2644   -1.7428   -0.0190 H         1 <0>         0.1580
     52 H19         3.3490   -0.3914   -0.0317 H         1 <0>         0.1779
     53 H20        -2.5176    7.0942   -4.4137 H         1 <0>         0.1352
     54 H21        -4.3753    5.4975   -4.6800 H         1 <0>         0.1450
     55 H22        -3.7511    7.8852   -0.4063 H         1 <0>         0.1464
     56 H23        -7.1154    7.6447   -1.2079 H         1 <0>         0.0605
     57 H24        -7.5986    6.8841    0.3233 H         1 <0>         0.1118
     58 H25        -8.9968    6.0275   -1.4580 H         1 <0>         0.0982
     59 H26        -7.9262    4.7353   -0.8871 H         1 <0>         0.0882
     60 H27        -7.4253    6.4426   -3.3487 H         1 <0>         0.0607
     61 H28        -8.1315    4.8123   -3.3652 H         1 <0>         0.1119
     62 N6          1.5225    5.9925   -1.0645 N.4       1 <0>        -0.4169
     63 H29         1.9870    5.6994   -1.9321 H         1 <0>         0.4322
@<TRIPOS>BOND
     1    1    2 1
     2    1   34 1
     3    1   35 1
     4    1   36 1
     5    2    8 1
     6    2    3 1
     7    2   23 1
     8    3    4 2
     9    3    5 am
    10    5    6 am
    11    5   11 1
    12    6    7 2
    13    6    8 am
    14    8    9 1
    15    9   10 1
    16    9   37 1
    17    9   38 1
    18   10   39 1
    19   11   40 1
    20   11   41 1
    21   11   62 1
    22   12   13 1
    23   12   42 1
    24   12   43 1
    25   12   62 1
    26   13   14 1
    27   13   44 1
    28   13   45 1
    29   14   15 1
    30   14   17 1
    31   15   16 1
    32   15   46 1
    33   15   47 1
    34   16   48 1
    35   16   49 1
    36   16   62 1
    37   17   22 ar
    38   17   18 ar
    39   18   19 ar
    40   19   20 ar
    41   19   50 1
    42   20   21 ar
    43   20   51 1
    44   21   22 ar
    45   21   52 1
    46   23   28 ar
    47   23   24 ar
    48   24   25 ar
    49   24   53 1
    50   25   26 ar
    51   25   54 1
    52   26   33 1
    53   26   27 ar
    54   27   28 ar
    55   27   29 1
    56   28   55 1
    57   29   30 1
    58   30   31 1
    59   30   56 1
    60   30   57 1
    61   31   32 1
    62   31   58 1
    63   31   59 1
    64   32   33 1
    65   32   60 1
    66   32   61 1
    67   62   63 1
@<TRIPOS>MOLECULE
ZINC12713587
   65    70     0     0     0
SMALL
USER_CHARGES
8-[(R)-[(3S)-3-methyl-1-piperidyl]-[1-[[(2S)-tetrahydrofuran-2-yl]methyl]tetrazol-5-yl]methyl]-3,6-dihydro-2H-[1,4]dioxino[2,3-g]quinolin-7-one
@<TRIPOS>ATOM
      1 C1          3.1733   -1.2834    4.6754 C.3       1 <0>        -0.1499
      2 C2          3.6532   -1.5965    3.2567 C.3       1 <0>        -0.1097
      3 H1          4.3705   -0.8394    2.9398 H         1 <0>         0.0973
      4 C3          4.3202   -2.9746    3.2352 C.3       1 <0>        -0.1320
      5 C4          4.7435   -3.3057    1.8014 C.3       1 <0>        -0.1450
      6 C5          3.5161   -3.2586    0.8886 C.3       1 <0>        -0.0007
      7 C6          2.4574   -1.5989    2.3017 C.3       1 <0>        -0.0018
      8 C7          1.8167   -1.7960   -0.0245 C.3       1 <0>         0.2199
      9 H2          1.0146   -2.4828    0.2458 H         1 <0>         0.1595
     10 C8          2.3227   -2.1325   -1.4035 C.2       1 <0>        -0.2791
     11 C9          1.7049   -3.0954   -2.1341 C.2       1 <0>         0.1036
     12 C10         2.2198   -3.3990   -3.4687 C.ar      1 <0>        -0.1500
     13 C11         1.6234   -4.3826   -4.2670 C.ar      1 <0>        -0.0462
     14 C12         2.1309   -4.6472   -5.5215 C.ar      1 <0>         0.0331
     15 C13         3.2361   -3.9360   -5.9981 C.ar      1 <0>         0.1401
     16 C14         3.8330   -2.9628   -5.2151 C.ar      1 <0>        -0.1704
     17 C15         3.3346   -2.6848   -3.9492 C.ar      1 <0>         0.2121
     18 N1          3.9169   -1.7173   -3.1555 N.am      1 <0>        -0.6158
     19 H3          4.6846   -1.2257   -3.4870 H         1 <0>         0.4273
     20 C16         3.4321   -1.4423   -1.9321 C.2       1 <0>         0.5458
     21 O1          3.9690   -0.5778   -1.2608 O.2       1 <0>        -0.5251
     22 O2          3.7385   -4.1861   -7.2374 O.3       1 <0>        -0.2947
     23 C17         3.3577   -5.4228   -7.8494 C.3       1 <0>         0.0166
     24 C18         1.8419   -5.5953   -7.6835 C.3       1 <0>         0.0183
     25 O3          1.5431   -5.6112   -6.2836 O.3       1 <0>        -0.3000
     26 C19         1.2936   -0.3828   -0.0123 C.2       1 <0>         0.1318
     27 N2          2.0079    0.7161   -0.0133 N.2       1 <0>        -0.2497
     28 N3          1.1974    1.7176   -0.0002 N.2       1 <0>        -0.0544
     29 N4         -0.0154    1.2860    0.0091 N.2       1 <0>        -0.0609
     30 N5          0.0021   -0.0041    0.0020 N.pl3     1 <0>        -0.2815
     31 C20        -1.1646   -0.8902    0.0084 C.3       1 <0>         0.1093
     32 C21        -1.5848   -1.1904   -1.4318 C.3       1 <0>         0.0556
     33 H4         -1.7450   -0.2625   -1.9808 H         1 <0>         0.0905
     34 C22        -2.8658   -2.0536   -1.4493 C.3       1 <0>        -0.1446
     35 C23        -2.6532   -3.0169   -2.6385 C.3       1 <0>        -0.1546
     36 C24        -1.2689   -2.6217   -3.1988 C.3       1 <0>         0.0423
     37 O4         -0.5841   -1.9976   -2.0897 O.3       1 <0>        -0.3816
     38 H5          2.4572   -2.0415    4.9923 H         1 <0>         0.0668
     39 H6          4.0254   -1.2818    5.3551 H         1 <0>         0.0795
     40 H7          2.6955   -0.3038    4.6894 H         1 <0>         0.0668
     41 H8          5.1982   -2.9645    3.8810 H         1 <0>         0.0965
     42 H9          3.6152   -3.7261    3.5906 H         1 <0>         0.0833
     43 H10         5.4783   -2.5760    1.4612 H         1 <0>         0.0896
     44 H11         5.1812   -4.3035    1.7724 H         1 <0>         0.1154
     45 H12         2.7876   -3.9981    1.2211 H         1 <0>         0.1322
     46 H13         3.8164   -3.4799   -0.1356 H         1 <0>         0.1249
     47 H14         1.9888   -0.6148    2.3039 H         1 <0>         0.1168
     48 H15         1.7340   -2.3463    2.6277 H         1 <0>         0.1305
     49 H16         0.8517   -3.6261   -1.7382 H         1 <0>         0.1612
     50 H17         0.7682   -4.9317   -3.9016 H         1 <0>         0.1536
     51 H18         4.6879   -2.4192   -5.5893 H         1 <0>         0.1544
     52 H19         3.8769   -6.2486   -7.3631 H         1 <0>         0.0889
     53 H20         3.6114   -5.4025   -8.9093 H         1 <0>         0.1351
     54 H21         1.5270   -6.5350   -8.1373 H         1 <0>         0.1338
     55 H22         1.3223   -4.7644   -8.1609 H         1 <0>         0.0850
     56 H23        -0.9106   -1.8216    0.5145 H         1 <0>         0.1186
     57 H24        -1.9871   -0.4041    0.5331 H         1 <0>         0.1411
     58 H25        -2.9629   -2.6119   -0.5182 H         1 <0>         0.0856
     59 H26        -3.7443   -1.4300   -1.6153 H         1 <0>         0.0920
     60 H27        -2.6452   -4.0514   -2.2953 H         1 <0>         0.0838
     61 H28        -3.4279   -2.8712   -3.3913 H         1 <0>         0.0867
     62 H29        -0.7267   -3.5074   -3.5302 H         1 <0>         0.0983
     63 H30        -1.3800   -1.9157   -4.0218 H         1 <0>         0.0679
     64 N6          2.9351   -1.8998    0.9355 N.4       1 <0>        -0.3904
     65 H31         3.6593   -1.2189    0.6785 H         1 <0>         0.4466
@<TRIPOS>BOND
     1    1    2 1
     2    1   38 1
     3    1   39 1
     4    1   40 1
     5    2    3 1
     6    2    7 1
     7    2    4 1
     8    4    5 1
     9    4   41 1
    10    4   42 1
    11    5    6 1
    12    5   43 1
    13    5   44 1
    14    6   45 1
    15    6   46 1
    16    6   64 1
    17    7   47 1
    18    7   48 1
    19    7   64 1
    20    8    9 1
    21    8   10 1
    22    8   26 1
    23    8   64 1
    24   10   20 1
    25   10   11 2
    26   11   12 1
    27   11   49 1
    28   12   17 ar
    29   12   13 ar
    30   13   14 ar
    31   13   50 1
    32   14   25 1
    33   14   15 ar
    34   15   16 ar
    35   15   22 1
    36   16   17 ar
    37   16   51 1
    38   17   18 1
    39   18   19 1
    40   18   20 am
    41   20   21 2
    42   22   23 1
    43   23   24 1
    44   23   52 1
    45   23   53 1
    46   24   25 1
    47   24   54 1
    48   24   55 1
    49   26   30 1
    50   26   27 2
    51   27   28 1
    52   28   29 2
    53   29   30 1
    54   30   31 1
    55   31   32 1
    56   31   56 1
    57   31   57 1
    58   32   33 1
    59   32   37 1
    60   32   34 1
    61   34   35 1
    62   34   58 1
    63   34   59 1
    64   35   36 1
    65   35   60 1
    66   35   61 1
    67   36   37 1
    68   36   62 1
    69   36   63 1
    70   64   65 1
@<TRIPOS>MOLECULE
ZINC38769560
   57    61     0     0     0
SMALL
USER_CHARGES

@<TRIPOS>ATOM
      1 C1          0.0881    0.7489   -0.2263 C.3       1 <0>        -0.1718
      2 C2          0.1976   -0.7747   -0.1399 C.3       1 <0>         0.0743
      3 H1         -0.7910   -1.2334   -0.1200 H         1 <0>         0.1181
      4 C3          1.0432   -1.3351   -1.3091 C.3       1 <0>        -0.1300
      5 C4          2.4270   -1.4064   -0.6860 C.2       1 <0>        -0.1960
      6 C5          2.2689   -1.2965    0.6374 C.2       1 <0>         0.0478
      7 O1          0.9709   -1.1701    1.0091 O.3       1 <0>        -0.3084
      8 C6          3.3856   -1.3111    1.5899 C.2       1 <0>         0.0229
      9 C7          3.1458   -1.1951    2.9114 C.2       1 <0>        -0.1367
     10 C8          4.2618   -1.2098    3.8634 C.2       1 <0>         0.3664
     11 N1          5.5281   -1.3233    3.5560 N.2       1 <0>        -0.3017
     12 N2          6.2669   -1.2930    4.7465 N.pl3     1 <0>        -0.4267
     13 C9          5.3934   -1.1579    5.7651 C.2       1 <0>         0.4709
     14 S1          5.7885   -1.0693    7.4285 S.2       1 <0>        -0.4965
     15 N3          4.1541   -1.0998    5.2386 N.pl3     1 <0>        -0.5876
     16 C10         7.7240   -1.3904    4.8634 C.3       1 <0>         0.2693
     17 N4          8.3342   -0.1188    4.4528 N.4       1 <0>        -0.4002
     18 C11         8.0633    0.1147    3.0287 C.3       1 <0>        -0.0302
     19 C12         8.5998    1.4927    2.6270 C.3       1 <0>         0.1289
     20 N5         10.0225    1.5643    2.9941 N.pl3     1 <0>        -0.6654
     21 C13        10.4049    1.1870    4.3636 C.3       1 <0>         0.1264
     22 C14         9.7833   -0.1765    4.6833 C.3       1 <0>        -0.0207
     23 C15        10.9723    1.9738    2.0789 C.ar      1 <0>         0.4967
     24 C16        11.3198    3.3335    1.9592 C.ar      1 <0>        -0.2751
     25 C17        10.9089    4.5232    2.5983 C.2       1 <0>         0.0975
     26 N6         11.5733    5.5185    2.0840 N.2       1 <0>        -0.2243
     27 N7         12.4434    5.0438    1.0944 N.pl3     1 <0>        -0.3729
     28 C18        12.2950    3.6915    1.0083 C.ar      1 <0>         0.3461
     29 N8         12.8476    2.7351    0.2634 N.ar      1 <0>        -0.5236
     30 C19        12.4903    1.4785    0.4117 C.ar      1 <0>         0.3602
     31 N9         11.5844    1.0943    1.2939 N.ar      1 <0>        -0.5556
     32 C20        13.3553    5.8604    0.2894 C.3       1 <0>         0.1018
     33 H2          1.0869    1.1852   -0.2323 H         1 <0>         0.0609
     34 H3         -0.4341    1.0242   -1.1426 H         1 <0>         0.0791
     35 H4         -0.4666    1.1227    0.6343 H         1 <0>         0.0697
     36 H5          0.6958   -2.3259   -1.6017 H         1 <0>         0.0960
     37 H6          1.0332   -0.6531   -2.1594 H         1 <0>         0.0963
     38 H7          3.3624   -1.5244   -1.2127 H         1 <0>         0.1562
     39 H8          4.3992   -1.4149    1.2320 H         1 <0>         0.1530
     40 H9          2.1321   -1.0914    3.2693 H         1 <0>         0.1642
     41 H10         7.9920   -1.6047    5.8980 H         1 <0>         0.1824
     42 H11         8.0872   -2.1921    4.2204 H         1 <0>         0.1674
     43 H12         8.5560   -0.6546    2.4340 H         1 <0>         0.1409
     44 H13         6.9883    0.0777    2.8524 H         1 <0>         0.1419
     45 H14         8.4919    1.6283    1.5509 H         1 <0>         0.1176
     46 H15         8.0458    2.2693    3.1544 H         1 <0>         0.0871
     47 H16        11.4905    1.1206    4.4356 H         1 <0>         0.1220
     48 H17        10.0333    1.9328    5.0663 H         1 <0>         0.0926
     49 H18         9.9756   -0.4281    5.7263 H         1 <0>         0.1491
     50 H19        10.2239   -0.9370    4.0386 H         1 <0>         0.1425
     51 H20        10.1684    4.5959    3.3811 H         1 <0>         0.1987
     52 H21        12.9590    0.7297   -0.2096 H         1 <0>         0.2114
     53 H22        14.3172    5.9376    0.7963 H         1 <0>         0.0826
     54 H23        13.4950    5.3946   -0.6861 H         1 <0>         0.0976
     55 H24        12.9322    6.8564    0.1592 H         1 <0>         0.0981
     56 H25         3.3284   -1.0005    5.7379 H         1 <0>         0.4638
     57 H26         7.9382    0.6337    4.9958 H         1 <0>         0.4249
@<TRIPOS>BOND
     1    1    2 1
     2    1   33 1
     3    1   34 1
     4    1   35 1
     5    2    3 1
     6    2    7 1
     7    2    4 1
     8    4    5 1
     9    4   36 1
    10    4   37 1
    11    5    6 2
    12    5   38 1
    13    6    7 1
    14    6    8 1
    15    8    9 2
    16    8   39 1
    17    9   10 1
    18    9   40 1
    19   10   15 1
    20   10   11 2
    21   11   12 1
    22   12   13 1
    23   12   16 1
    24   13   14 2
    25   13   15 1
    26   15   56 1
    27   16   17 1
    28   16   41 1
    29   16   42 1
    30   17   22 1
    31   17   18 1
    32   17   57 1
    33   18   19 1
    34   18   43 1
    35   18   44 1
    36   19   20 1
    37   19   45 1
    38   19   46 1
    39   20   21 1
    40   20   23 1
    41   21   22 1
    42   21   47 1
    43   21   48 1
    44   22   49 1
    45   22   50 1
    46   23   31 ar
    47   23   24 ar
    48   24   28 ar
    49   24   25 1
    50   25   26 2
    51   25   51 1
    52   26   27 1
    53   27   28 1
    54   27   32 1
    55   28   29 ar
    56   29   30 ar
    57   30   31 ar
    58   30   52 1
    59   32   53 1
    60   32   54 1
    61   32   55 1
@<TRIPOS>MOLECULE
ZINC39676098
   72    77     0     0     0
SMALL
USER_CHARGES

@<TRIPOS>ATOM
      1 C1          0.5627    2.4353    9.1991 C.ar      1 <0>        -0.1038
      2 C2          1.6994    2.3533    9.9814 C.ar      1 <0>        -0.1221
      3 C3          2.9260    2.1045    9.3944 C.ar      1 <0>        -0.0831
      4 C4          3.0157    1.9371    8.0252 C.ar      1 <0>        -0.1199
      5 C5          1.8789    2.0181    7.2430 C.ar      1 <0>        -0.0993
      6 C6          0.6525    2.2684    7.8298 C.ar      1 <0>        -0.1221
      7 C7          4.3531    1.6668    7.3852 C.3       1 <0>         0.1731
      8 N1          4.5850    0.2213    7.3306 N.pl3     1 <0>        -0.3574
      9 C8          4.8792   -0.4944    6.2250 C.2       1 <0>         0.0841
     10 C9          5.0171   -1.7884    6.5959 C.2       1 <0>        -0.2747
     11 C10         4.7998   -1.8662    7.9754 C.2       1 <0>         0.0562
     12 N2          4.5467   -0.6612    8.4179 N.2       1 <0>        -0.2785
     13 C11         5.3458   -2.9420    5.6837 C.3       1 <0>         0.2014
     14 N3          6.7995   -3.1083    5.6112 N.am      1 <0>        -0.7215
     15 C12         7.3288   -4.0857    4.8488 C.2       1 <0>         0.5175
     16 O1          6.6016   -4.8275    4.2229 O.2       1 <0>        -0.5216
     17 C13         8.8242   -4.2567    4.7742 C.3       1 <0>        -0.1135
     18 H1          9.3229   -3.2991    4.9235 H         1 <0>         0.1131
     19 C14         9.2286   -4.8676    3.4138 C.3       1 <0>         0.1005
     20 N4         10.3469   -5.7860    3.7333 N.am      1 <0>        -0.6216
     21 C15         9.9507   -6.4175    5.0148 C.3       1 <0>         0.1110
     22 C16         9.2994   -5.2770    5.8222 C.3       1 <0>        -0.0719
     23 C17        10.3242   -4.6385    6.7547 C.3       1 <0>        -0.1346
     24 C18        10.7392   -5.6550    7.8221 C.3       1 <0>        -0.0112
     25 N5          9.5566   -6.0812    8.5803 N.4       1 <0>        -0.5047
     26 C19         8.6166   -6.7768    7.6931 C.3       1 <0>        -0.0081
     27 C20         8.1122   -5.8078    6.6200 C.3       1 <0>        -0.1470
     28 C21        11.4704   -5.9990    3.0200 C.2       1 <0>         0.5532
     29 O2         12.2997   -6.7901    3.4166 O.2       1 <0>        -0.4954
     30 C22        11.6963   -5.2541    1.7296 C.3       1 <0>         0.0389
     31 H2         11.6210   -4.1812    1.9066 H         1 <0>         0.1109
     32 C23        10.6476   -5.6826    0.6943 C.3       1 <0>         0.0323
     33 O3         10.8992   -4.9683   -0.5207 O.3       1 <0>        -0.2965
     34 C24        12.1909   -4.9238   -0.9476 C.ar      1 <0>         0.0428
     35 C25        12.4614   -4.5791   -2.2636 C.ar      1 <0>        -0.1084
     36 C26        13.7678   -4.5264   -2.7110 C.ar      1 <0>        -0.1092
     37 C27        14.8085   -4.8172   -1.8486 C.ar      1 <0>        -0.1093
     38 C28        14.5458   -5.1629   -0.5366 C.ar      1 <0>        -0.1074
     39 C29        13.2368   -5.2188   -0.0814 C.ar      1 <0>         0.0464
     40 O4         12.9936   -5.5680    1.2116 O.3       1 <0>        -0.2801
     41 H3         -0.3962    2.6252    9.6581 H         1 <0>         0.1265
     42 H4          1.6293    2.4841   11.0511 H         1 <0>         0.1265
     43 H5          3.8142    2.0412   10.0056 H         1 <0>         0.1233
     44 H6          1.9491    1.8877    6.1732 H         1 <0>         0.1209
     45 H7         -0.2356    2.3321    7.2186 H         1 <0>         0.1265
     46 H8          4.3612    2.0745    6.3744 H         1 <0>         0.1083
     47 H9          5.1396    2.1390    7.9738 H         1 <0>         0.0976
     48 H10         4.9852   -0.1043    5.2235 H         1 <0>         0.1760
     49 H11         4.8391   -2.7650    8.5730 H         1 <0>         0.1793
     50 H12         4.8948   -3.8542    6.0744 H         1 <0>         0.0785
     51 H13         4.9530   -2.7405    4.6871 H         1 <0>         0.0774
     52 H14         7.3811   -2.5150    6.1118 H         1 <0>         0.4005
     53 H15         8.3942   -5.4206    2.9825 H         1 <0>         0.1079
     54 H16         9.5617   -4.0865    2.7305 H         1 <0>         0.0947
     55 H17         9.2326   -7.2182    4.8383 H         1 <0>         0.0901
     56 H18        10.8274   -6.7999    5.5375 H         1 <0>         0.0918
     57 H19        11.1999   -4.3359    6.1804 H         1 <0>         0.1175
     58 H20         9.8841   -3.7649    7.2356 H         1 <0>         0.0977
     59 H21        11.1939   -6.5212    7.3414 H         1 <0>         0.1341
     60 H22        11.4592   -5.1964    8.4999 H         1 <0>         0.1400
     61 H23         9.8406   -6.7039    9.3217 H         1 <0>         0.4346
     62 H24         9.1216   -7.6165    7.2156 H         1 <0>         0.1331
     63 H25         7.7722   -7.1449    8.2757 H         1 <0>         0.1402
     64 H26         7.5926   -4.9761    7.0959 H         1 <0>         0.0996
     65 H27         7.4283   -6.3298    5.9508 H         1 <0>         0.1276
     66 H28        10.7262   -6.7546    0.5135 H         1 <0>         0.0863
     67 H29         9.6495   -5.4434    1.0614 H         1 <0>         0.1254
     68 H30        11.6501   -4.3519   -2.9394 H         1 <0>         0.1387
     69 H31        13.9762   -4.2579   -3.7361 H         1 <0>         0.1376
     70 H32        15.8286   -4.7746   -2.2009 H         1 <0>         0.1377
     71 H33        15.3606   -5.3895    0.1351 H         1 <0>         0.1378
     72 H34         9.1047   -5.2720    8.9789 H         1 <0>         0.4281
@<TRIPOS>BOND
     1    1    6 ar
     2    1    2 ar
     3    1   41 1
     4    2    3 ar
     5    2   42 1
     6    3    4 ar
     7    3   43 1
     8    4    5 ar
     9    4    7 1
    10    5    6 ar
    11    5   44 1
    12    6   45 1
    13    7    8 1
    14    7   46 1
    15    7   47 1
    16    8   12 1
    17    8    9 1
    18    9   10 2
    19    9   48 1
    20   10   11 1
    21   10   13 1
    22   11   12 2
    23   11   49 1
    24   13   14 1
    25   13   50 1
    26   13   51 1
    27   14   15 am
    28   14   52 1
    29   15   16 2
    30   15   17 1
    31   17   18 1
    32   17   22 1
    33   17   19 1
    34   19   20 1
    35   19   53 1
    36   19   54 1
    37   20   21 1
    38   20   28 am
    39   21   22 1
    40   21   55 1
    41   21   56 1
    42   22   27 1
    43   22   23 1
    44   23   24 1
    45   23   57 1
    46   23   58 1
    47   24   25 1
    48   24   59 1
    49   24   60 1
    50   25   26 1
    51   25   61 1
    52   25   72 1
    53   26   27 1
    54   26   62 1
    55   26   63 1
    56   27   64 1
    57   27   65 1
    58   28   29 2
    59   28   30 1
    60   30   31 1
    61   30   40 1
    62   30   32 1
    63   32   33 1
    64   32   66 1
    65   32   67 1
    66   33   34 1
    67   34   39 ar
    68   34   35 ar
    69   35   36 ar
    70   35   68 1
    71   36   37 ar
    72   36   69 1
    73   37   38 ar
    74   37   70 1
    75   38   39 ar
    76   38   71 1
    77   39   40 1
@<TRIPOS>MOLECULE
ZINC63140134
   55    59     0     0     0
SMALL
USER_CHARGES

@<TRIPOS>ATOM
      1 C1         -0.0164    1.3550    0.0095 C.ar      1 <0>        -0.1551
      2 C2          1.1410    2.1399    0.0027 C.ar      1 <0>         0.0620
      3 C3          2.4037    1.6438   -0.0112 C.ar      1 <0>        -0.2109
      4 C4          2.5525    0.2262   -0.0187 C.ar      1 <0>         0.3432
      5 N1          3.6252   -0.5057   -0.0410 N.pl3     1 <0>        -0.5730
      6 C5          3.2309   -1.9201   -0.0041 C.3       1 <0>         0.0943
      7 H1          3.6151   -2.4169    0.8868 H         1 <0>         0.1910
      8 C6          3.6809   -2.6346   -1.2781 C.3       1 <0>         0.2067
      9 H2          4.7364   -2.8909   -1.1874 H         1 <0>         0.1417
     10 N2          2.9166   -3.8504   -1.5161 N.am      1 <0>        -0.6117
     11 C7          1.5932   -4.1696   -1.0241 C.3       1 <0>         0.1165
     12 H3          1.7250   -5.0654   -0.4173 H         1 <0>         0.1190
     13 C8          0.9068   -3.1781   -0.1219 C.3       1 <0>        -0.0830
     14 C9          1.7041   -1.9085   -0.0238 C.2       1 <0>         0.0491
     15 C10         1.3316   -0.6359   -0.0133 C.ar      1 <0>        -0.1461
     16 C11         0.0021   -0.0041    0.0020 C.ar      1 <0>         0.0000
     17 C12         0.7173   -4.6083   -2.1701 C.2       1 <0>         0.5068
     18 O1         -0.4056   -4.1776   -2.3272 O.2       1 <0>        -0.4929
     19 N3          1.2720   -5.5228   -3.0203 N.am      1 <0>        -0.6091
     20 C13         2.6300   -5.9938   -2.6913 C.3       1 <0>         0.0900
     21 C14         3.4830   -4.7939   -2.3381 C.2       1 <0>         0.5144
     22 O2          4.6130   -4.6714   -2.7612 O.2       1 <0>        -0.4725
     23 C15         0.5533   -6.0114   -4.1997 C.3       1 <0>         0.1208
     24 C16         0.8646   -5.1101   -5.3962 C.3       1 <0>        -0.1374
     25 C17         0.1139   -5.6204   -6.6279 C.3       1 <0>         0.0779
     26 O3          0.4047   -4.7786   -7.7455 O.3       1 <0>        -0.5754
     27 C18         3.5008   -1.7060   -2.4512 C.ar      1 <0>        -0.1421
     28 C19         2.2494   -1.5388   -3.0148 C.ar      1 <0>        -0.0581
     29 C20         2.0842   -0.6872   -4.0907 C.ar      1 <0>        -0.1038
     30 C21         3.1703   -0.0021   -4.6032 C.ar      1 <0>        -0.0357
     31 C22         4.4211   -0.1685   -4.0392 C.ar      1 <0>        -0.0384
     32 C23         4.5855   -1.0172   -2.9602 C.ar      1 <0>        -0.0395
     33 N4          5.5839    0.5646   -4.5882 N.pl3     1 <0>         0.0254
     34 O4          5.4396    1.3089   -5.5299 O.2       1 <0>        -0.1368
     35 O5          6.6781    0.4190   -4.0949 O.3       1 <0>        -0.1462
     36 H4         -0.9739    1.8543    0.0260 H         1 <0>         0.1585
     37 H5          1.0216    3.2133    0.0084 H         1 <0>         0.1606
     38 H6          3.2631    2.2979   -0.0167 H         1 <0>         0.1699
     39 H7         -0.0972   -2.9812   -0.4979 H         1 <0>         0.1470
     40 H8          0.8402   -3.5906    0.8848 H         1 <0>         0.1458
     41 H9         -0.9069   -0.5872    0.0074 H         1 <0>         0.1737
     42 H10         2.5854   -6.6745   -1.8411 H         1 <0>         0.1195
     43 H11         3.0582   -6.5068   -3.5525 H         1 <0>         0.1359
     44 H12         0.8689   -7.0310   -4.4209 H         1 <0>         0.0947
     45 H13        -0.5188   -5.9974   -4.0034 H         1 <0>         0.0986
     46 H14         0.5490   -4.0906   -5.1750 H         1 <0>         0.0702
     47 H15         1.9367   -5.1242   -5.5925 H         1 <0>         0.0717
     48 H16         0.4295   -6.6400   -6.8492 H         1 <0>         0.0514
     49 H17        -0.9582   -5.6064   -6.4317 H         1 <0>         0.0512
     50 H18        -0.0385   -5.0434   -8.5632 H         1 <0>         0.3882
     51 H19         1.4010   -2.0740   -2.6145 H         1 <0>         0.1359
     52 H20         1.1068   -0.5571   -4.5314 H         1 <0>         0.1563
     53 H21         3.0413    0.6629   -5.4444 H         1 <0>         0.1642
     54 H22         5.5622   -1.1444   -2.5172 H         1 <0>         0.1584
     55 H23         4.5357   -0.1733   -0.0765 H         1 <0>         0.4571
@<TRIPOS>BOND
     1    1   16 ar
     2    1    2 ar
     3    1   36 1
     4    2    3 ar
     5    2   37 1
     6    3    4 ar
     7    3   38 1
     8    4   15 ar
     9    4    5 2
    10    5    6 1
    11    5   55 1
    12    6    7 1
    13    6   14 1
    14    6    8 1
    15    8    9 1
    16    8   10 1
    17    8   27 1
    18   10   21 am
    19   10   11 1
    20   11   12 1
    21   11   13 1
    22   11   17 1
    23   13   14 1
    24   13   39 1
    25   13   40 1
    26   14   15 2
    27   15   16 ar
    28   16   41 1
    29   17   18 2
    30   17   19 am
    31   19   20 1
    32   19   23 1
    33   20   21 1
    34   20   42 1
    35   20   43 1
    36   21   22 2
    37   23   24 1
    38   23   44 1
    39   23   45 1
    40   24   25 1
    41   24   46 1
    42   24   47 1
    43   25   26 1
    44   25   48 1
    45   25   49 1
    46   26   50 1
    47   27   32 ar
    48   27   28 ar
    49   28   29 ar
    50   28   51 1
    51   29   30 ar
    52   29   52 1
    53   30   31 ar
    54   30   53 1
    55   31   32 ar
    56   31   33 1
    57   32   54 1
    58   33   34 2
    59   33   35 1
@<TRIPOS>MOLECULE
ZINC00420451
   41    43     0     0     0
SMALL
USER_CHARGES
N-(2,6-dimethylphenyl)-2-(3-tetrazol-1-ylphenoxy)-acetamide
@<TRIPOS>ATOM
      1 C1         -5.5475   -1.3313   -0.6318 C.3       1 <0>        -0.1096
      2 C2         -6.9393   -0.8061   -0.3908 C.ar      1 <0>        -0.0689
      3 C3         -8.0191   -1.6664   -0.4292 C.ar      1 <0>        -0.1139
      4 C4         -9.2971   -1.1844   -0.2134 C.ar      1 <0>        -0.1128
      5 C5         -9.4979    0.1589    0.0463 C.ar      1 <0>        -0.1149
      6 C6         -8.4217    1.0235    0.0913 C.ar      1 <0>        -0.0912
      7 C7         -7.1370    0.5424   -0.1246 C.ar      1 <0>         0.1320
      8 N1         -6.0446    1.4157   -0.0796 N.am      1 <0>        -0.6705
      9 C8         -4.9848    1.1295    0.7023 C.2       1 <0>         0.5117
     10 O1         -5.0053    0.1496    1.4167 O.2       1 <0>        -0.4865
     11 C9         -3.7743    2.0271    0.6889 C.3       1 <0>         0.0413
     12 O2         -2.7932    1.5172    1.5941 O.3       1 <0>        -0.2813
     13 C10        -1.6319    2.2147    1.7023 C.ar      1 <0>         0.1547
     14 C11        -1.4433    3.3696    0.9559 C.ar      1 <0>        -0.2029
     15 C12        -0.2610    4.0767    1.0612 C.ar      1 <0>        -0.0501
     16 C13         0.7349    3.6394    1.9134 C.ar      1 <0>        -0.1581
     17 C14         0.5495    2.4877    2.6662 C.ar      1 <0>         0.1736
     18 C15        -0.6371    1.7762    2.5620 C.ar      1 <0>        -0.1336
     19 N2          1.5603    2.0443    3.5316 N.pl3     1 <0>        -0.3321
     20 C16         2.7644    2.6169    3.7479 C.2       1 <0>         0.2319
     21 N3          3.3923    1.8802    4.6266 N.2       1 <0>        -0.3268
     22 N4          2.6675    0.8810    4.9806 N.2       1 <0>        -0.0292
     23 N5          1.5352    0.9117    4.3644 N.2       1 <0>        -0.0697
     24 C17        -8.6414    2.4872    0.3748 C.3       1 <0>        -0.1155
     25 H1         -5.1600   -1.7691    0.2881 H         1 <0>         0.0855
     26 H2         -5.5761   -2.0917   -1.4122 H         1 <0>         0.0645
     27 H3         -4.8996   -0.5128   -0.9457 H         1 <0>         0.0538
     28 H4         -7.8656   -2.7160   -0.6321 H         1 <0>         0.1270
     29 H5        -10.1402   -1.8584   -0.2480 H         1 <0>         0.1263
     30 H6        -10.4972    0.5323    0.2145 H         1 <0>         0.1272
     31 H7         -6.0501    2.2271   -0.6112 H         1 <0>         0.4100
     32 H8         -4.0639    3.0322    0.9953 H         1 <0>         0.1001
     33 H9         -3.3576    2.0601   -0.3178 H         1 <0>         0.1005
     34 H10        -2.2199    3.7135    0.2887 H         1 <0>         0.1399
     35 H11        -0.1148    4.9726    0.4761 H         1 <0>         0.1454
     36 H12         1.6581    4.1941    1.9942 H         1 <0>         0.1395
     37 H13        -0.7835    0.8798    3.1464 H         1 <0>         0.1527
     38 H14         3.1386    3.5164    3.2818 H         1 <0>         0.2418
     39 H15        -8.7962    3.0198   -0.5635 H         1 <0>         0.0726
     40 H16        -9.5195    2.6065    1.0095 H         1 <0>         0.0719
     41 H17        -7.7674    2.8939    0.8836 H         1 <0>         0.0639
@<TRIPOS>BOND
     1    1    2 1
     2    1   25 1
     3    1   26 1
     4    1   27 1
     5    2    7 ar
     6    2    3 ar
     7    3    4 ar
     8    3   28 1
     9    4    5 ar
    10    4   29 1
    11    5    6 ar
    12    5   30 1
    13    6    7 ar
    14    6   24 1
    15    7    8 1
    16    8    9 am
    17    8   31 1
    18    9   10 2
    19    9   11 1
    20   11   12 1
    21   11   32 1
    22   11   33 1
    23   12   13 1
    24   13   18 ar
    25   13   14 ar
    26   14   15 ar
    27   14   34 1
    28   15   16 ar
    29   15   35 1
    30   16   17 ar
    31   16   36 1
    32   17   18 ar
    33   17   19 1
    34   18   37 1
    35   19   23 1
    36   19   20 1
    37   20   21 2
    38   20   38 1
    39   21   22 1
    40   22   23 2
    41   24   39 1
    42   24   40 1
    43   24   41 1
@<TRIPOS>MOLECULE
ZINC20459361
   39    40     0     0     0
SMALL
USER_CHARGES
2-[(S)-(3,5-dimethoxyphenyl)-(5-hydroxy-2-methyl-1H-imidazol-4-yl)methyl]propanedinitrile
@<TRIPOS>ATOM
      1 C1          1.3068   -1.5344    4.6247 C.3       1 <0>        -0.0906
      2 C2          0.8744   -0.2693    3.9293 C.2       1 <0>         0.3385
      3 N1          1.1109    0.9973    4.3668 N.2       1 <0>        -0.5294
      4 H1         -0.1629   -1.0054    2.1514 H         1 <0>         0.4356
      5 C3          0.5600    1.8499    3.4478 C.2       1 <0>         0.4446
      6 C4          0.0000    1.0800    2.4877 C.3       1 <0>        -0.2867
      7 N2          0.2113   -0.2063    2.8082 N.pl3     1 <0>        -0.5698
      8 C5         -0.7288    1.5792    1.2668 C.3       1 <0>         0.0056
      9 H2         -0.7513    2.6788    1.2866 H         1 <0>         0.2102
     10 C6         -2.1427    1.0576    1.2775 C.ar      1 <0>        -0.0991
     11 C7         -2.3754   -0.3044    1.2667 C.ar      1 <0>        -0.1801
     12 C8         -3.6764   -0.7872    1.2822 C.ar      1 <0>         0.1889
     13 C9         -4.7430    0.0982    1.2967 C.ar      1 <0>        -0.2700
     14 C10        -4.5069    1.4643    1.3018 C.ar      1 <0>         0.1866
     15 C11        -3.2041    1.9421    1.2924 C.ar      1 <0>        -0.1380
     16 O1         -5.5504    2.3347    1.3164 O.3       1 <0>        -0.3011
     17 C12        -6.8641    1.7725    1.3255 C.3       1 <0>         0.0178
     18 O2         -3.9046   -2.1269    1.2767 O.3       1 <0>        -0.3048
     19 C13        -5.2687   -2.5526    1.2865 C.3       1 <0>         0.0182
     20 C14        -0.0127    1.0858    0.0080 C.3       1 <0>         0.1165
     21 C15         1.3683    1.5953   -0.0024 C.1       1 <0>         0.1771
     22 N3          2.4340    1.9885   -0.0105 N.1       1 <0>        -0.3202
     23 C16        -0.7246    1.5734   -1.1845 C.1       1 <0>         0.1893
     24 N4         -1.2741    1.9498   -2.1049 N.1       1 <0>        -0.3349
     25 O3          0.5716    3.2079    3.4934 O.2       1 <0>        -0.6345
     26 H3          1.8476   -1.2788    5.5479 H         1 <0>         0.1066
     27 H4          1.9676   -2.1105    3.9602 H         1 <0>         0.0919
     28 H5          0.4210   -2.1372    4.8735 H         1 <0>         0.0914
     29 H6         -1.5442   -0.9937    1.2506 H         1 <0>         0.1342
     30 H7         -5.7562   -0.2756    1.3037 H         1 <0>         0.1494
     31 H8         -3.0196    3.0063    1.2964 H         1 <0>         0.1546
     32 H9         -7.6091    2.5817    1.3370 H         1 <0>         0.1129
     33 H10        -6.9888    1.1465    2.2214 H         1 <0>         0.0623
     34 H11        -7.0056    1.1566    0.4252 H         1 <0>         0.0616
     35 H12        -5.3098   -3.6518    1.2807 H         1 <0>         0.1127
     36 H13        -5.7812   -2.1618    0.3951 H         1 <0>         0.0620
     37 H14        -5.7651   -2.1719    2.1913 H         1 <0>         0.0625
     38 H15         0.0219   -0.0129   -0.0332 H         1 <0>         0.1781
     39 H16        -0.6211    1.3313    1.6153 H         1 <0>         0.3501
@<TRIPOS>BOND
     1    1   26 1
     2    1   27 1
     3    1   28 1
     4    1    2 1
     5    2    7 1
     6    2    3 2
     7    3    5 1
     8    4    7 1
     9    5   25 2
    10    5    6 1
    11    6    8 1
    12    6   39 1
    13    6    7 1
    14    8    9 1
    15    8   10 1
    16    8   20 1
    17   10   15 ar
    18   10   11 ar
    19   11   12 ar
    20   11   29 1
    21   12   13 ar
    22   12   18 1
    23   13   14 ar
    24   13   30 1
    25   14   15 ar
    26   14   16 1
    27   15   31 1
    28   16   17 1
    29   17   32 1
    30   17   33 1
    31   17   34 1
    32   18   19 1
    33   19   35 1
    34   19   36 1
    35   19   37 1
    36   20   21 1
    37   20   23 1
    38   20   38 1
    39   21   22 3
    40   23   24 3
@<TRIPOS>MOLECULE
ZINC37989058
   31    32     0     0     0
SMALL
USER_CHARGES

@<TRIPOS>ATOM
      1 C1         -0.0178    1.4608    0.0101 C.3       1 <0>         0.0710
      2 N1          0.0021   -0.0041    0.0020 N.pl3     1 <0>        -0.4783
      3 C2          0.0087   -0.8131   -1.0848 C.2       1 <0>         0.1556
      4 N2          0.0272   -2.0444   -0.6522 N.2       1 <0>        -0.2941
      5 N3          0.0324   -2.0514    0.6337 N.2       1 <0>        -0.2692
      6 C3          0.0235   -0.8248    1.0798 C.2       1 <0>         0.1689
      7 C4          0.0319   -0.4002    2.5258 C.3       1 <0>         0.1497
      8 N4         -1.3502   -0.2807    3.0091 N.3       1 <0>        -0.6776
      9 C5         -1.3811    0.1325    4.4184 C.3       1 <0>         0.0982
     10 C6         -2.8121    0.2443    4.8778 C.ar      1 <0>        -0.0729
     11 C7         -3.4886    1.4428    4.7459 C.ar      1 <0>        -0.0591
     12 C8         -4.8010    1.5457    5.1667 C.ar      1 <0>        -0.0902
     13 C9         -5.4378    0.4491    5.7198 C.ar      1 <0>        -0.0448
     14 C10        -4.7606   -0.7496    5.8515 C.ar      1 <0>        -0.0291
     15 C11        -3.4495   -0.8530    5.4255 C.ar      1 <0>        -0.0230
     16 N5         -5.4412   -1.9230    6.4436 N.pl3     1 <0>         0.0266
     17 O1         -4.8492   -2.9708    6.5587 O.2       1 <0>        -0.1550
     18 O2         -6.5892   -1.8336    6.8122 O.3       1 <0>        -0.1280
     19 Br1        -7.2333    0.5894    6.2962 Br        1 <0>         0.0225
     20 H1          1.0048    1.8381    0.0023 H         1 <0>         0.0858
     21 H2         -0.5450    1.8219   -0.8730 H         1 <0>         0.0968
     22 H3         -0.5280    1.8123    0.9069 H         1 <0>         0.0851
     23 H4         -0.0002   -0.4977   -2.1177 H         1 <0>         0.2207
     24 H5          0.5615   -1.1449    3.1200 H         1 <0>         0.1148
     25 H6          0.5339    0.5628    2.6187 H         1 <0>         0.0550
     26 H7         -1.8806    0.3563    2.4337 H         1 <0>         0.3430
     27 H8         -0.8614   -0.6084    5.0258 H         1 <0>         0.0999
     28 H9         -0.8889    1.0993    4.5245 H         1 <0>         0.0570
     29 H10        -2.9913    2.2989    4.3144 H         1 <0>         0.1488
     30 H11        -5.3293    2.4820    5.0640 H         1 <0>         0.1573
     31 H12        -2.9220   -1.7902    5.5246 H         1 <0>         0.1646
@<TRIPOS>BOND
     1    1    2 1
     2    1   20 1
     3    1   21 1
     4    1   22 1
     5    2    6 1
     6    2    3 1
     7    3    4 2
     8    3   23 1
     9    4    5 1
    10    5    6 2
    11    6    7 1
    12    7    8 1
    13    7   24 1
    14    7   25 1
    15    8    9 1
    16    8   26 1
    17    9   10 1
    18    9   27 1
    19    9   28 1
    20   10   15 ar
    21   10   11 ar
    22   11   12 ar
    23   11   29 1
    24   12   13 ar
    25   12   30 1
    26   13   14 ar
    27   13   19 1
    28   14   15 ar
    29   14   16 1
    30   15   31 1
    31   16   17 2
    32   16   18 1
@<TRIPOS>MOLECULE
ZINC49418399
   30    31     0     0     0
SMALL
USER_CHARGES

@<TRIPOS>ATOM
      1 C1         -0.0184    1.5028    0.0103 C.3       1 <0>        -0.0798
      2 C2          0.0021   -0.0041    0.0020 C.2       1 <0>         0.0841
      3 C3          0.0059   -0.7057   -1.1580 C.2       1 <0>        -0.2789
      4 S1          0.0324   -2.3787   -0.5348 S.3       1 <0>         0.2221
      5 C4          0.0358   -2.0148    1.1084 C.2       1 <0>         0.2414
      6 N1          0.0227   -0.6995    1.1240 N.2       1 <0>        -0.5509
      7 N2          0.0531   -2.8912    2.1872 N.am      1 <0>        -0.6059
      8 C5          0.0706   -4.2219    1.9741 C.2       1 <0>         0.5360
      9 O1          0.0712   -4.6547    0.8411 O.2       1 <0>        -0.4799
     10 C6          0.0895   -5.1722    3.1436 C.3       1 <0>        -0.1869
     11 S2          0.1103   -6.8806    2.5343 S.3       1 <0>         0.1503
     12 C7          0.1310   -7.8562    4.0015 C.ar      1 <0>         0.1460
     13 C8          0.1556   -9.2447    3.9064 C.ar      1 <0>        -0.0972
     14 C9          0.1715   -9.9978    5.0659 C.ar      1 <0>         0.0141
     15 C10         0.1624   -9.3355    6.2869 C.ar      1 <0>        -0.1817
     16 C11         0.1377   -7.9556    6.3077 C.ar      1 <0>         0.1697
     17 N3          0.1284   -7.2618    5.1852 N.ar      1 <0>        -0.4867
     18 N4          0.1640   -9.9059    2.5823 N.pl3     1 <0>         0.0384
     19 O2          0.1854  -11.1125    2.5093 O.2       1 <0>        -0.1519
     20 O3          0.1495   -9.2394    1.5737 O.3       1 <0>        -0.1361
     21 H1          1.0042    1.8801    0.0026 H         1 <0>         0.0753
     22 H2         -0.5455    1.8639   -0.8728 H         1 <0>         0.0769
     23 H3         -0.5286    1.8543    0.9071 H         1 <0>         0.0736
     24 H4         -0.0046   -0.3507   -2.1779 H         1 <0>         0.1964
     25 H5          0.0527   -2.5451    3.0933 H         1 <0>         0.4271
     26 H6          0.9799   -4.9901    3.7453 H         1 <0>         0.1340
     27 H7         -0.7999   -5.0149    3.7539 H         1 <0>         0.1340
     28 H8          0.1904  -11.0768    5.0232 H         1 <0>         0.1706
     29 H9          0.1740   -9.8947    7.2108 H         1 <0>         0.1635
     30 H10         0.1302   -7.4369    7.2549 H         1 <0>         0.1822
@<TRIPOS>BOND
     1    1    2 1
     2    1   21 1
     3    1   22 1
     4    1   23 1
     5    2    6 1
     6    2    3 2
     7    3    4 1
     8    3   24 1
     9    4    5 1
    10    5    6 2
    11    5    7 1
    12    7    8 am
    13    7   25 1
    14    8    9 2
    15    8   10 1
    16   10   11 1
    17   10   26 1
    18   10   27 1
    19   11   12 1
    20   12   17 ar
    21   12   13 ar
    22   13   14 ar
    23   13   18 1
    24   14   15 ar
    25   14   28 1
    26   15   16 ar
    27   15   29 1
    28   16   17 ar
    29   16   30 1
    30   18   19 2
    31   18   20 1
@<TRIPOS>MOLECULE
ZINC66248377
   43    45     0     0     0
SMALL
USER_CHARGES

@<TRIPOS>ATOM
      1 C1         -0.0187    1.5258    0.0104 C.3       1 <0>        -0.1679
      2 C2          0.0021   -0.0041    0.0020 C.3       1 <0>         0.1179
      3 N1         -1.3723   -0.5112    0.0124 N.pl3     1 <0>        -0.3532
      4 C3         -1.9075   -1.3725   -0.8779 C.2       1 <0>         0.1819
      5 C4         -3.1944   -1.5889   -0.5201 C.2       1 <0>        -0.8183
      6 C5         -3.4546   -0.8340    0.6282 C.2       1 <0>         0.1394
      7 N2         -2.3613   -0.1922    0.9518 N.2       1 <0>        -0.2822
      8 S1         -4.3402   -2.6360   -1.3541 S.o2      1 <0>         2.7305
      9 O1         -5.6384   -2.1614   -1.0243 O.2       1 <0>        -0.9320
     10 O2         -3.8874   -2.7457   -2.6965 O.2       1 <0>        -0.9482
     11 N3         -4.2031   -4.1440   -0.6836 N.pl3     1 <0>        -1.0363
     12 C6         -4.5537   -4.3482    0.6481 C.2       1 <0>         0.3361
     13 C7         -5.0268   -3.4054    1.5092 C.2       1 <0>        -0.3163
     14 C8         -5.2530   -4.0263    2.7409 C.2       1 <0>         0.0766
     15 N4         -4.9309   -5.2895    2.6300 N.2       1 <0>        -0.2849
     16 N5         -4.4920   -5.5203    1.3200 N.pl3     1 <0>        -0.3737
     17 C9         -4.0426   -6.8037    0.7750 C.3       1 <0>         0.1635
     18 C10        -5.1770   -7.8255    0.8747 C.3       1 <0>        -0.1270
     19 C11        -4.7076   -9.1658    0.3055 C.3       1 <0>        -0.1176
     20 C12        -3.5009   -9.6642    1.1032 C.3       1 <0>        -0.1244
     21 C13        -2.3665   -8.6424    1.0036 C.3       1 <0>        -0.1175
     22 C14        -2.8359   -7.3020    1.5728 C.3       1 <0>        -0.1255
     23 H1          1.0039    1.9031    0.0027 H         1 <0>         0.0812
     24 H2         -0.5459    1.8868   -0.8726 H         1 <0>         0.0635
     25 H3         -0.5289    1.8773    0.9072 H         1 <0>         0.0739
     26 H4          0.5123   -0.3556   -0.8948 H         1 <0>         0.1033
     27 H5          0.5293   -0.3651    0.8851 H         1 <0>         0.0945
     28 H6         -1.3997   -1.8104   -1.7246 H         1 <0>         0.1929
     29 H7         -4.3943   -0.7920    1.1590 H         1 <0>         0.2009
     30 H8         -3.8785   -4.8850   -1.2188 H         1 <0>         0.4247
     31 H9         -5.1965   -2.3634    1.2812 H         1 <0>         0.1568
     32 H10        -5.6289   -3.5454    3.6318 H         1 <0>         0.1900
     33 H11        -3.7597   -6.6757   -0.2698 H         1 <0>         0.0924
     34 H12        -5.4600   -7.9535    1.9195 H         1 <0>         0.0818
     35 H13        -6.0367   -7.4705    0.3063 H         1 <0>         0.0687
     36 H14        -5.5158   -9.8938    0.3765 H         1 <0>         0.0722
     37 H15        -4.4247   -9.0378   -0.7393 H         1 <0>         0.0648
     38 H16        -3.7838   -9.7922    2.1481 H         1 <0>         0.0667
     39 H17        -3.1665  -10.6191    0.6977 H         1 <0>         0.0675
     40 H18        -1.5068   -8.9974    1.5719 H         1 <0>         0.0712
     41 H19        -2.0835   -8.5144   -0.0412 H         1 <0>         0.0644
     42 H20        -2.0277   -6.5741    1.5018 H         1 <0>         0.0657
     43 H21        -3.1188   -7.4301    2.6176 H         1 <0>         0.0816
@<TRIPOS>BOND
     1    1    2 1
     2    1   23 1
     3    1   24 1
     4    1   25 1
     5    2    3 1
     6    2   26 1
     7    2   27 1
     8    3    7 1
     9    3    4 1
    10    4    5 2
    11    4   28 1
    12    5    6 1
    13    5    8 1
    14    6    7 2
    15    6   29 1
    16    8    9 2
    17    8   10 2
    18    8   11 1
    19   11   12 1
    20   11   30 1
    21   12   16 1
    22   12   13 2
    23   13   14 1
    24   13   31 1
    25   14   15 2
    26   14   32 1
    27   15   16 1
    28   16   17 1
    29   17   22 1
    30   17   18 1
    31   17   33 1
    32   18   19 1
    33   18   34 1
    34   18   35 1
    35   19   20 1
    36   19   36 1
    37   19   37 1
    38   20   21 1
    39   20   38 1
    40   20   39 1
    41   21   22 1
    42   21   40 1
    43   21   41 1
    44   22   42 1
    45   22   43 1
@<TRIPOS>MOLECULE
ZINC11936332
   46    50     0     0     0
SMALL
USER_CHARGES
(4S)-5-[(3-phenyl-1,2,4-oxadiazol-5-yl)methyl]-4-(2-pyridyl)-3,4,6,7-tetrahydroimidazo[5,4-c]pyridine
@<TRIPOS>ATOM
      1 C1         11.4893    3.4938    0.7611 C.ar      1 <0>        -0.0849
      2 C2         10.9984    3.8291    2.0101 C.ar      1 <0>        -0.1183
      3 C3          9.6476    4.0501    2.1869 C.ar      1 <0>        -0.0769
      4 C4          8.7779    3.9354    1.1044 C.ar      1 <0>        -0.0495
      5 C5          9.2770    3.5922   -0.1503 C.ar      1 <0>        -0.0711
      6 C6         10.6304    3.3786   -0.3170 C.ar      1 <0>        -0.1209
      7 C7          7.3243    4.1719    1.2885 C.2       1 <0>         0.2353
      8 N1          6.3712    4.0957    0.3324 N.2       1 <0>        -0.4264
      9 C8          5.2439    4.3786    0.9361 C.2       1 <0>         0.1050
     10 O1          5.5339    4.6203    2.2183 O.3       1 <0>         0.1194
     11 N2          6.7256    4.4936    2.4056 N.2       1 <0>        -0.3428
     12 C9          3.8773    4.4287    0.3027 C.3       1 <0>         0.1159
     13 C10         3.9797    2.1240   -0.4337 C.3       1 <0>        -0.0077
     14 C11         3.5588    0.7022   -0.0363 C.3       1 <0>        -0.0611
     15 C12         2.0505    0.6545   -0.0163 C.2       1 <0>         0.0341
     16 C13         1.2779    1.7646   -0.0007 C.2       1 <0>        -0.0853
     17 N3         -0.0163    1.3496    0.0095 N.pl3     1 <0>        -0.5390
     18 H1         -0.8281    1.9334    0.0205 H         1 <0>         0.4356
     19 C14         0.0021   -0.0041    0.0020 C.2       1 <0>         0.2339
     20 N4          1.2463   -0.4085   -0.0133 N.2       1 <0>        -0.4670
     21 C15         1.8281    3.1666    0.0068 C.3       1 <0>         0.2014
     22 H2          1.7312    3.6054   -0.9863 H         1 <0>         0.1676
     23 C16         1.0735    4.0033    1.0076 C.ar      1 <0>         0.0601
     24 C17        -0.0978    4.6315    0.6280 C.ar      1 <0>        -0.1466
     25 C18        -0.7845    5.3984    1.5564 C.ar      1 <0>        -0.0548
     26 C19        -0.2652    5.5053    2.8378 C.ar      1 <0>        -0.1392
     27 C20         0.9113    4.8485    3.1445 C.ar      1 <0>         0.1250
     28 N5          1.5353    4.1232    2.2368 N.ar      1 <0>        -0.4941
     29 H3         12.5469    3.3210    0.6272 H         1 <0>         0.1351
     30 H4         11.6734    3.9178    2.8485 H         1 <0>         0.1367
     31 H5          9.2653    4.3112    3.1627 H         1 <0>         0.1317
     32 H6          8.6067    3.4973   -0.9917 H         1 <0>         0.1350
     33 H7         11.0189    3.1165   -1.2901 H         1 <0>         0.1365
     34 H8          3.9720    4.7217   -0.7429 H         1 <0>         0.1767
     35 H9          3.2593    5.1560    0.8292 H         1 <0>         0.1601
     36 H10         5.0512    2.2433   -0.2732 H         1 <0>         0.1427
     37 H11         3.7500    2.2894   -1.4863 H         1 <0>         0.1458
     38 H12         3.9485    0.4653    0.9537 H         1 <0>         0.1061
     39 H13         3.9409   -0.0128   -0.7648 H         1 <0>         0.1340
     40 H14        -0.8673   -0.6447    0.0075 H         1 <0>         0.2268
     41 H15        -0.4730    4.5264   -0.3793 H         1 <0>         0.1463
     42 H16        -1.7024    5.9004    1.2883 H         1 <0>         0.1529
     43 H17        -0.7735    6.0947    3.5865 H         1 <0>         0.1533
     44 H18         1.3223    4.9267    4.1401 H         1 <0>         0.1751
     45 N6          3.2529    3.0943    0.4151 N.4       1 <0>        -0.3866
     46 H19         3.3033    2.7839    1.3925 H         1 <0>         0.4442
@<TRIPOS>BOND
     1    1    6 ar
     2    1    2 ar
     3    1   29 1
     4    2    3 ar
     5    2   30 1
     6    3    4 ar
     7    3   31 1
     8    4    5 ar
     9    4    7 1
    10    5    6 ar
    11    5   32 1
    12    6   33 1
    13    7   11 2
    14    7    8 1
    15    8    9 2
    16    9   10 1
    17    9   12 1
    18   10   11 1
    19   12   34 1
    20   12   35 1
    21   12   45 1
    22   13   14 1
    23   13   36 1
    24   13   37 1
    25   13   45 1
    26   14   15 1
    27   14   38 1
    28   14   39 1
    29   15   20 1
    30   15   16 2
    31   16   17 1
    32   16   21 1
    33   17   18 1
    34   17   19 1
    35   19   20 2
    36   19   40 1
    37   21   22 1
    38   21   23 1
    39   21   45 1
    40   23   28 ar
    41   23   24 ar
    42   24   25 ar
    43   24   41 1
    44   25   26 ar
    45   25   42 1
    46   26   27 ar
    47   26   43 1
    48   27   28 ar
    49   27   44 1
    50   45   46 1
@<TRIPOS>MOLECULE
ZINC38689007
   52    54     0     0     0
SMALL
USER_CHARGES

@<TRIPOS>ATOM
      1 C1          1.1930   -2.5724    5.1816 C.3       1 <0>        -0.1424
      2 C2          0.7206   -3.1466    3.8709 C.ar      1 <0>         0.0329
      3 C3          0.6380   -4.4900    3.7062 C.ar      1 <0>        -0.1627
      4 C4          0.2041   -5.0556    2.5042 C.ar      1 <0>         0.0542
      5 C5         -0.1554   -4.2937    1.4431 C.ar      1 <0>        -0.2025
      6 C6         -0.0962   -2.8789    1.5374 C.ar      1 <0>         0.3372
      7 N1         -0.3856   -1.9339    0.6660 N.pl3     1 <0>        -0.6056
      8 C7         -0.1451   -0.6247    1.2813 C.3       1 <0>         0.1370
      9 H1         -1.0706   -0.0499    1.3146 H         1 <0>         0.2003
     10 C8          0.3436   -0.9071    2.6846 C.2       1 <0>         0.3248
     11 C9          0.3556   -2.2860    2.8080 C.ar      1 <0>        -0.2177
     12 N2          0.6940    0.0062    3.6327 N.am      1 <0>        -0.6083
     13 C10         0.4554    1.3166    3.4267 C.2       1 <0>         0.4961
     14 O1          0.0012    1.6908    2.3667 O.2       1 <0>        -0.4259
     15 C11         0.7533    2.3168    4.5139 C.3       1 <0>         0.0386
     16 N3          0.4090    3.6660    4.0459 N.3       1 <0>        -0.5222
     17 C12        -1.0411    3.7997    3.8445 C.3       1 <0>         0.0149
     18 C13        -1.3487    5.1976    3.3013 C.3       1 <0>         0.0942
     19 H2         -0.8785    5.3205    2.3256 H         1 <0>         0.0701
     20 O2         -0.8350    6.1788    4.2060 O.3       1 <0>        -0.3756
     21 C14         0.5748    6.0782    4.4247 C.3       1 <0>         0.0925
     22 H3          1.1009    6.2267    3.4817 H         1 <0>         0.0701
     23 C15         0.9018    4.6892    4.9793 C.3       1 <0>         0.0236
     24 C16         1.0136    7.1464    5.4283 C.3       1 <0>        -0.1482
     25 C17        -2.8627    5.3707    3.1642 C.3       1 <0>        -0.1472
     26 C18         0.9052    0.1281    0.5060 C.2       1 <0>         0.4682
     27 O3          1.9254   -0.4277    0.1742 O.2       1 <0>        -0.4643
     28 O4          0.7073    1.4161    0.1840 O.3       1 <0>        -0.3023
     29 C19         1.7447    2.0676   -0.5517 C.3       1 <0>         0.0310
     30 H4          0.3320   -2.2626    5.7739 H         1 <0>         0.0993
     31 H5          1.7565   -3.3289    5.7277 H         1 <0>         0.1043
     32 H6          1.8322   -1.7102    4.9912 H         1 <0>         0.0678
     33 H7          0.9147   -5.1388    4.5240 H         1 <0>         0.1563
     34 H8          0.1543   -6.1311    2.4185 H         1 <0>         0.1622
     35 H9         -0.4858   -4.7619    0.5276 H         1 <0>         0.1627
     36 H10         1.1151   -0.2865    4.4560 H         1 <0>         0.4415
     37 H11         0.1637    2.0777    5.3990 H         1 <0>         0.0900
     38 H12         1.8139    2.2781    4.7625 H         1 <0>         0.1275
     39 H13        -1.3802    3.0490    3.1306 H         1 <0>         0.0968
     40 H14        -1.5552    3.6573    4.7951 H         1 <0>         0.0469
     41 H15         0.4188    4.5611    5.9480 H         1 <0>         0.0538
     42 H16         1.9811    4.5879    5.0938 H         1 <0>         0.0933
     43 H17         0.4883    6.9964    6.3716 H         1 <0>         0.0651
     44 H18         2.0881    7.0692    5.5946 H         1 <0>         0.0754
     45 H19         0.7771    8.1346    5.0339 H         1 <0>         0.0723
     46 H20        -3.3322    5.2492    4.1404 H         1 <0>         0.0638
     47 H21        -3.0810    6.3661    2.7774 H         1 <0>         0.0720
     48 H22        -3.2535    4.6202    2.4771 H         1 <0>         0.0726
     49 H23         1.8994    1.5496   -1.4981 H         1 <0>         0.0701
     50 H24         1.4583    3.1013   -0.7458 H         1 <0>         0.1198
     51 H25         2.6678    2.0491    0.0278 H         1 <0>         0.0676
     52 H26        -0.7064   -2.0806   -0.2376 H         1 <0>         0.4583
@<TRIPOS>BOND
     1    1    2 1
     2    1   30 1
     3    1   31 1
     4    1   32 1
     5    2   11 ar
     6    2    3 ar
     7    3    4 ar
     8    3   33 1
     9    4    5 ar
    10    4   34 1
    11    5    6 ar
    12    5   35 1
    13    6   11 ar
    14    6    7 2
    15    7    8 1
    16    7   52 1
    17    8    9 1
    18    8   10 1
    19    8   26 1
    20   10   11 2
    21   10   12 1
    22   12   13 am
    23   12   36 1
    24   13   14 2
    25   13   15 1
    26   15   16 1
    27   15   37 1
    28   15   38 1
    29   16   23 1
    30   16   17 1
    31   17   18 1
    32   17   39 1
    33   17   40 1
    34   18   19 1
    35   18   20 1
    36   18   25 1
    37   20   21 1
    38   21   22 1
    39   21   23 1
    40   21   24 1
    41   23   41 1
    42   23   42 1
    43   24   43 1
    44   24   44 1
    45   24   45 1
    46   25   46 1
    47   25   47 1
    48   25   48 1
    49   26   27 2
    50   26   28 1
    51   28   29 1
    52   29   49 1
    53   29   50 1
    54   29   51 1
@<TRIPOS>MOLECULE
ZINC60362734
   50    53     0     0     0
SMALL
USER_CHARGES

@<TRIPOS>ATOM
      1 C1         -0.0165    1.3620    0.0095 C.ar      1 <0>        -0.1443
      2 C2          1.1695    2.0829    0.0021 C.ar      1 <0>        -0.0565
      3 C3          2.3849    1.4337   -0.0130 C.ar      1 <0>        -0.1193
      4 C4          2.4258    0.0445   -0.0209 C.ar      1 <0>         0.0876
      5 C5          1.2235   -0.6815   -0.0133 C.ar      1 <0>        -0.1902
      6 C6          0.0021   -0.0041    0.0020 C.ar      1 <0>        -0.0454
      7 C7          1.5960   -2.0991   -0.0245 C.2       1 <0>         0.1349
      8 N1          2.8919   -2.1600   -0.0372 N.2       1 <0>        -0.2654
      9 O1          3.4313   -0.8535   -0.0353 O.3       1 <0>        -0.0787
     10 C8          0.6479   -3.2705   -0.0218 C.3       1 <0>        -0.0714
     11 C9          0.3183   -3.6533   -1.4416 C.2       1 <0>         0.5274
     12 O2          0.8053   -3.0357   -2.3648 O.2       1 <0>        -0.4985
     13 N2         -0.5177   -4.6819   -1.6855 N.am      1 <0>        -0.7368
     14 C10        -0.8381   -5.0540   -3.0657 C.3       1 <0>         0.1164
     15 H1         -0.8629   -4.1485   -3.6720 H         1 <0>         0.1366
     16 C11         0.2812   -5.9751   -3.6007 C.3       1 <0>        -0.5795
     17 S1         -0.4849   -7.6397   -3.3778 S.o2      1 <0>         2.3784
     18 O3         -0.3156   -8.0592   -2.0307 O.2       1 <0>        -0.8926
     19 O4         -0.0755   -8.4920   -4.4386 O.2       1 <0>        -0.8945
     20 C12        -2.2390   -7.1299   -3.6434 C.3       1 <0>        -0.6219
     21 C13        -2.2192   -5.6915   -3.0886 C.3       1 <0>         0.0224
     22 H2         -2.6124   -5.7062   -2.0721 H         1 <0>         0.1661
     23 N3         -3.1050   -4.8617   -3.9161 N.4       1 <0>        -0.3770
     24 C14        -3.1789   -3.5104   -3.3479 C.3       1 <0>        -0.0208
     25 C15        -4.0352   -2.6195   -4.2504 C.3       1 <0>        -0.1437
     26 C16        -5.4446   -3.2100   -4.3522 C.3       1 <0>        -0.1398
     27 C17        -5.3492   -4.6459   -4.8759 C.3       1 <0>        -0.1460
     28 C18        -4.4442   -5.4616   -3.9502 C.3       1 <0>        -0.0133
     29 H3         -0.9613    1.8850    0.0259 H         1 <0>         0.1369
     30 H4          1.1395    3.1624    0.0078 H         1 <0>         0.1449
     31 H5          3.3029    2.0027   -0.0191 H         1 <0>         0.1442
     32 H6         -0.9248   -0.5584    0.0083 H         1 <0>         0.1274
     33 H7          1.1159   -4.1156    0.4830 H         1 <0>         0.1347
     34 H8         -0.2675   -2.9958    0.5023 H         1 <0>         0.1334
     35 H9         -0.9072   -5.1759   -0.9471 H         1 <0>         0.4174
     36 H10         0.4841   -5.7749   -4.6527 H         1 <0>         0.1632
     37 H11         1.1877   -5.8778   -3.0032 H         1 <0>         0.1653
     38 H12        -2.4936   -7.1392   -4.7032 H         1 <0>         0.1651
     39 H13        -2.9210   -7.7604   -3.0729 H         1 <0>         0.1769
     40 H14        -3.6264   -3.5581   -2.3551 H         1 <0>         0.1348
     41 H15        -2.1748   -3.0927   -3.2731 H         1 <0>         0.1324
     42 H16        -4.0904   -1.6171   -3.8258 H         1 <0>         0.1158
     43 H17        -3.5884   -2.5709   -5.2434 H         1 <0>         0.0902
     44 H18        -5.9111   -3.2115   -3.3671 H         1 <0>         0.0833
     45 H19        -6.0422   -2.6105   -5.0388 H         1 <0>         0.0972
     46 H20        -6.3435   -5.0919   -4.8985 H         1 <0>         0.1165
     47 H21        -4.9297   -4.6392   -5.8819 H         1 <0>         0.0901
     48 H22        -4.3743   -6.4845   -4.3201 H         1 <0>         0.1372
     49 H23        -4.8648   -5.4678   -2.9446 H         1 <0>         0.1337
     50 H24        -2.7366   -4.8103   -4.8541 H         1 <0>         0.4252
@<TRIPOS>BOND
     1    1    6 ar
     2    1    2 ar
     3    1   29 1
     4    2    3 ar
     5    2   30 1
     6    3    4 ar
     7    3   31 1
     8    4    9 1
     9    4    5 ar
    10    5    6 ar
    11    5    7 1
    12    6   32 1
    13    7    8 2
    14    7   10 1
    15    8    9 1
    16   10   11 1
    17   10   33 1
    18   10   34 1
    19   11   12 2
    20   11   13 am
    21   13   14 1
    22   13   35 1
    23   14   15 1
    24   14   21 1
    25   14   16 1
    26   16   17 1
    27   16   36 1
    28   16   37 1
    29   17   18 2
    30   17   19 2
    31   17   20 1
    32   20   21 1
    33   20   38 1
    34   20   39 1
    35   21   22 1
    36   21   23 1
    37   23   28 1
    38   23   24 1
    39   23   50 1
    40   24   25 1
    41   24   40 1
    42   24   41 1
    43   25   26 1
    44   25   42 1
    45   25   43 1
    46   26   27 1
    47   26   44 1
    48   26   45 1
    49   27   28 1
    50   27   46 1
    51   27   47 1
    52   28   48 1
    53   28   49 1
@<TRIPOS>MOLECULE
ZINC65374303
   48    49     0     0     0
SMALL
USER_CHARGES

@<TRIPOS>ATOM
      1 C1         -0.0184    1.5028    0.0103 C.3       1 <0>        -0.1095
      2 C2          0.0021   -0.0041    0.0020 C.ar      1 <0>        -0.2355
      3 C3          0.0061   -0.7039   -1.1889 C.ar      1 <0>         0.2289
      4 N1          0.0247   -2.0283   -1.1623 N.ar      1 <0>        -0.5746
      5 C4          0.0389   -2.6863   -0.0124 C.ar      1 <0>         0.6478
      6 N2          0.0352   -2.0529    1.1507 N.ar      1 <0>        -0.5720
      7 C5          0.0232   -0.7245    1.1980 C.ar      1 <0>         0.5237
      8 N3          0.0253   -0.0646    2.4161 N.pl3     1 <0>        -0.6552
      9 C6          0.0475   -0.8310    3.6644 C.3       1 <0>         0.1389
     10 C7         -1.3810   -1.2265    4.0454 C.3       1 <0>        -0.1415
     11 C8         -1.3506   -2.0570    5.3323 C.3       1 <0>         0.1214
     12 N4         -0.6379   -1.2974    6.3686 N.pl3     1 <0>        -1.0052
     13 C9          0.7093   -0.7912    6.0728 C.3       1 <0>         0.1221
     14 C10         0.6558    0.0252    4.7776 C.3       1 <0>        -0.1443
     15 S1         -1.3400   -1.0168    7.8420 S.o2      1 <0>         2.6079
     16 O1         -0.7263    0.1744    8.3150 O.2       1 <0>        -0.9494
     17 O2         -2.7381   -1.0614    7.5918 O.2       1 <0>        -0.9504
     18 C11        -0.8441   -2.4262    8.8707 C.3       1 <0>        -0.6712
     19 N5          0.0577   -4.0701   -0.0270 N.pl3     1 <0>        -0.5706
     20 C12         0.0616   -4.7892   -1.3034 C.3       1 <0>         0.0610
     21 C13         0.0736   -4.8158    1.2339 C.3       1 <0>         0.0862
     22 C14        -0.0109    0.0313   -2.5043 C.3       1 <0>        -0.1407
     23 H1          1.0042    1.8801    0.0026 H         1 <0>         0.0910
     24 H2         -0.5455    1.8639   -0.8728 H         1 <0>         0.0918
     25 H3         -0.5286    1.8543    0.9071 H         1 <0>         0.0779
     26 H4          0.0120    0.9050    2.4424 H         1 <0>         0.4270
     27 H5          0.6488   -1.7299    3.5280 H         1 <0>         0.1059
     28 H6         -1.9766   -0.3279    4.2064 H         1 <0>         0.0782
     29 H7         -1.8217   -1.8166    3.2419 H         1 <0>         0.0816
     30 H8         -2.3700   -2.2573    5.6621 H         1 <0>         0.1036
     31 H9         -0.8325   -2.9980    5.1477 H         1 <0>         0.0751
     32 H10         1.0489   -0.1563    6.8911 H         1 <0>         0.1074
     33 H11         1.3953   -1.6290    5.9485 H         1 <0>         0.0769
     34 H12         1.6647    0.3259    4.4952 H         1 <0>         0.0892
     35 H13         0.0410    0.9120    4.9316 H         1 <0>         0.0832
     36 H14         0.2431   -2.4593    8.9419 H         1 <0>         0.1289
     37 H15        -1.2703   -2.3159    9.8679 H         1 <0>         0.1322
     38 H16        -1.2071   -3.3501    8.4205 H         1 <0>         0.1282
     39 H17         1.0902   -4.9535   -1.6246 H         1 <0>         0.0864
     40 H18        -0.4386   -5.7498   -1.1807 H         1 <0>         0.1105
     41 H19        -0.4637   -4.1992   -2.0544 H         1 <0>         0.0738
     42 H20        -0.9500   -5.0147    1.5514 H         1 <0>         0.0774
     43 H21         0.5997   -5.7597    1.0912 H         1 <0>         0.0926
     44 H22         0.5830   -4.2278    1.9974 H         1 <0>         0.0947
     45 H23         1.0125    0.2232   -2.8265 H         1 <0>         0.1170
     46 H24        -0.5199   -0.5756   -3.2531 H         1 <0>         0.0971
     47 H25        -0.5377    0.9780   -2.3846 H         1 <0>         0.1187
     48 H26         0.0276   -2.5233   -1.9965 H         1 <0>         0.4361
@<TRIPOS>BOND
     1    1    2 1
     2    1   23 1
     3    1   24 1
     4    1   25 1
     5    2    7 ar
     6    2    3 ar
     7    3    4 ar
     8    3   22 1
     9    4    5 ar
    10    4   48 1
    11    5    6 ar
    12    5   19 1
    13    6    7 ar
    14    7    8 1
    15    8    9 1
    16    8   26 1
    17    9   14 1
    18    9   10 1
    19    9   27 1
    20   10   11 1
    21   10   28 1
    22   10   29 1
    23   11   12 1
    24   11   30 1
    25   11   31 1
    26   12   13 1
    27   12   15 1
    28   13   14 1
    29   13   32 1
    30   13   33 1
    31   14   34 1
    32   14   35 1
    33   15   16 2
    34   15   17 2
    35   15   18 1
    36   18   36 1
    37   18   37 1
    38   18   38 1
    39   19   20 1
    40   19   21 1
    41   20   39 1
    42   20   40 1
    43   20   41 1
    44   21   42 1
    45   21   43 1
    46   21   44 1
    47   22   45 1
    48   22   46 1
    49   22   47 1
@<TRIPOS>MOLECULE
ZINC66835741
   47    49     0     0     0
SMALL
USER_CHARGES

@<TRIPOS>ATOM
      1 C1          0.6942    1.0701   -0.5248 C.3       1 <0>        -0.1800
      2 C2         -0.0427   -0.1481    0.0355 C.3       1 <0>         0.0101
      3 H1         -1.0618    0.1337    0.3001 H         1 <0>         0.1615
      4 C3          0.6748   -0.6487    1.2625 C.2       1 <0>         0.5027
      5 O1          1.5306   -1.5020    1.1589 O.2       1 <0>        -0.5012
      6 N1          0.3655   -0.1483    2.4751 N.am      1 <0>        -0.6381
      7 C4          1.0992   -0.5401    3.6025 C.ar      1 <0>         0.1284
      8 C5          2.4496   -0.8397    3.4823 C.ar      1 <0>        -0.1022
      9 C6          3.1746   -1.2257    4.5934 C.ar      1 <0>        -0.0819
     10 C7          2.5565   -1.3155    5.8302 C.ar      1 <0>         0.0385
     11 C8          1.2020   -1.0157    5.9539 C.ar      1 <0>         0.0570
     12 C9          0.4775   -0.6233    4.8407 C.ar      1 <0>        -0.1161
     13 O2          0.8361   -1.1796    7.2588 O.3       1 <0>        -0.3028
     14 C10         1.8786   -1.9749    7.8536 C.3       1 <0>         0.2125
     15 O3          3.0391   -1.6675    7.0587 O.3       1 <0>        -0.3019
     16 N2         -0.0761   -1.2097   -0.9794 N.4       1 <0>        -0.3698
     17 C11        -0.6892   -0.6908   -2.2080 C.3       1 <0>        -0.0178
     18 C12        -0.6531   -1.7675   -3.2946 C.3       1 <0>        -0.1411
     19 C13        -1.4304   -2.9964   -2.8140 C.3       1 <0>        -0.1313
     20 C14        -0.8284   -3.4844   -1.4931 C.3       1 <0>        -0.0995
     21 H2          0.2021   -3.7994   -1.6571 H         1 <0>         0.1354
     22 C15        -0.8580   -2.3440   -0.4732 C.3       1 <0>        -0.0002
     23 C16        -1.6333   -4.6473   -0.9726 C.2       1 <0>         0.4713
     24 O4         -2.1728   -4.5740    0.1060 O.2       1 <0>        -0.4938
     25 O5         -1.7508   -5.7646   -1.7072 O.3       1 <0>        -0.3415
     26 C17        -2.5284   -6.8272   -1.1521 C.3       1 <0>         0.0310
     27 H3          1.7133    0.7882   -0.7894 H         1 <0>         0.0937
     28 H4          0.1752    1.4322   -1.4123 H         1 <0>         0.1028
     29 H5          0.7190    1.8577    0.2283 H         1 <0>         0.1144
     30 H6         -0.3650    0.4831    2.5673 H         1 <0>         0.4214
     31 H7          2.9337   -0.7712    2.5194 H         1 <0>         0.1493
     32 H8          4.2249   -1.4583    4.4975 H         1 <0>         0.1467
     33 H9         -0.5719   -0.3860    4.9353 H         1 <0>         0.1436
     34 H10         2.0375   -1.6834    8.8919 H         1 <0>         0.1405
     35 H11         1.6375   -3.0356    7.7851 H         1 <0>         0.0919
     36 H12        -1.7237   -0.4120   -2.0076 H         1 <0>         0.1354
     37 H13        -0.1368    0.1856   -2.5470 H         1 <0>         0.1427
     38 H14        -1.1103   -1.3810   -4.2054 H         1 <0>         0.1250
     39 H15         0.3811   -2.0469   -3.4960 H         1 <0>         0.0959
     40 H16        -2.4761   -2.7294   -2.6614 H         1 <0>         0.0905
     41 H17        -1.3601   -3.7872   -3.5608 H         1 <0>         0.1125
     42 H18        -0.4303   -2.6882    0.4684 H         1 <0>         0.1409
     43 H19        -1.8889   -2.0301   -0.3098 H         1 <0>         0.1417
     44 H20        -2.5421   -7.6680   -1.8456 H         1 <0>         0.1137
     45 H21        -2.0886   -7.1435   -0.2063 H         1 <0>         0.0681
     46 H22        -3.5476   -6.4806   -0.9811 H         1 <0>         0.0681
     47 H23         0.8654   -1.5134   -1.1781 H         1 <0>         0.4320
@<TRIPOS>BOND
     1    1    2 1
     2    1   27 1
     3    1   28 1
     4    1   29 1
     5    2    3 1
     6    2    4 1
     7    2   16 1
     8    4    5 2
     9    4    6 am
    10    6    7 1
    11    6   30 1
    12    7   12 ar
    13    7    8 ar
    14    8    9 ar
    15    8   31 1
    16    9   10 ar
    17    9   32 1
    18   10   15 1
    19   10   11 ar
    20   11   12 ar
    21   11   13 1
    22   12   33 1
    23   13   14 1
    24   14   15 1
    25   14   34 1
    26   14   35 1
    27   16   22 1
    28   16   17 1
    29   16   47 1
    30   17   18 1
    31   17   36 1
    32   17   37 1
    33   18   19 1
    34   18   38 1
    35   18   39 1
    36   19   20 1
    37   19   40 1
    38   19   41 1
    39   20   21 1
    40   20   22 1
    41   20   23 1
    42   22   42 1
    43   22   43 1
    44   23   24 2
    45   23   25 1
    46   25   26 1
    47   26   44 1
    48   26   45 1
    49   26   46 1
@<TRIPOS>MOLECULE
ZINC07782686
   47    48     0     0     0
SMALL
USER_CHARGES
1-(cyclohexylcarbamoylcarbamoyl)ethyl 2-(4-oxothiazolidin-3-yl)acetate
@<TRIPOS>ATOM
      1 C1          6.4871    1.3126   -0.1509 C.3       1 <0>        -0.1676
      2 C2          5.9789    1.2463    1.2907 C.3       1 <0>         0.0747
      3 H1          6.0016    2.2436    1.7302 H         1 <0>         0.1191
      4 C3          4.5651    0.7247    1.3014 C.2       1 <0>         0.5207
      5 O1          4.2998   -0.2952    1.9007 O.2       1 <0>        -0.4382
      6 N1          3.5956    1.3921    0.6447 N.am      1 <0>        -0.6875
      7 C4          2.3312    0.9256    0.6543 C.2       1 <0>         0.6956
      8 O2          2.0652   -0.0969    1.2551 O.2       1 <0>        -0.5241
      9 N2          1.3617    1.5929   -0.0024 N.am      1 <0>        -0.7326
     10 C5         -0.0127    1.0858    0.0080 C.3       1 <0>         0.1602
     11 C6         -0.7288    1.5792    1.2668 C.3       1 <0>        -0.1314
     12 C7         -2.1642    1.0497    1.2777 C.3       1 <0>        -0.1180
     13 C8         -2.9042    1.5565    0.0381 C.3       1 <0>        -0.1231
     14 C9         -2.1881    1.0631   -1.2207 C.3       1 <0>        -0.1165
     15 C10        -0.7527    1.5927   -1.2315 C.3       1 <0>        -0.1257
     16 O3          6.8285    0.3576    2.0631 O.3       1 <0>        -0.3252
     17 C11         7.8875    0.9082    2.6773 C.2       1 <0>         0.4477
     18 O4          8.0975    2.0935    2.5730 O.2       1 <0>        -0.4899
     19 C12         8.8144    0.0479    3.4970 C.3       1 <0>         0.1282
     20 N3          9.8825    0.8785    4.0587 N.am      1 <0>        -0.6021
     21 C13        11.1402    1.0801    3.3147 C.3       1 <0>         0.1573
     22 S1         11.8687    2.5138    4.2211 S.3       1 <0>        -0.2459
     23 C14        10.8782    2.3067    5.7641 C.3       1 <0>        -0.0860
     24 C15         9.7318    1.4537    5.2447 C.2       1 <0>         0.5194
     25 O5          8.7163    1.3047    5.8910 O.2       1 <0>        -0.5078
     26 H2          5.8493    1.9798   -0.7307 H         1 <0>         0.0837
     27 H3          7.5097    1.6899   -0.1586 H         1 <0>         0.0812
     28 H4          6.4645    0.3154   -0.5904 H         1 <0>         0.0786
     29 H5          3.8079    2.2081    0.1652 H         1 <0>         0.4104
     30 H6          1.5740    2.4089   -0.4819 H         1 <0>         0.3982
     31 H7          0.0021   -0.0041    0.0020 H         1 <0>         0.0920
     32 H8         -0.2017    1.2182    2.1499 H         1 <0>         0.0685
     33 H9         -0.7436    2.6691    1.2728 H         1 <0>         0.0642
     34 H10        -2.6744    1.4012    2.1745 H         1 <0>         0.0665
     35 H11        -2.1494   -0.0402    1.2717 H         1 <0>         0.0659
     36 H12        -2.9190    2.6464    0.0441 H         1 <0>         0.0630
     37 H13        -3.9268    1.1792    0.0459 H         1 <0>         0.0654
     38 H14        -2.7153    1.4241   -2.1037 H         1 <0>         0.0691
     39 H15        -2.1733   -0.0268   -1.2266 H         1 <0>         0.0666
     40 H16        -0.7675    2.6825   -1.2255 H         1 <0>         0.0693
     41 H17        -0.2425    1.2411   -2.1283 H         1 <0>         0.0700
     42 H18         8.2546   -0.4205    4.3065 H         1 <0>         0.1383
     43 H19         9.2500   -0.7239    2.8624 H         1 <0>         0.1351
     44 H20        11.7823    0.2021    3.3860 H         1 <0>         0.1139
     45 H21        10.9428    1.3353    2.2736 H         1 <0>         0.1191
     46 H22        10.5190    3.2670    6.1340 H         1 <0>         0.1436
     47 H23        11.4463    1.7794    6.5304 H         1 <0>         0.1360
@<TRIPOS>BOND
     1    1    2 1
     2    1   26 1
     3    1   27 1
     4    1   28 1
     5    2    3 1
     6    2    4 1
     7    2   16 1
     8    4    5 2
     9    4    6 am
    10    6    7 am
    11    6   29 1
    12    7    8 2
    13    7    9 am
    14    9   10 1
    15    9   30 1
    16   10   15 1
    17   10   11 1
    18   10   31 1
    19   11   12 1
    20   11   32 1
    21   11   33 1
    22   12   13 1
    23   12   34 1
    24   12   35 1
    25   13   14 1
    26   13   36 1
    27   13   37 1
    28   14   15 1
    29   14   38 1
    30   14   39 1
    31   15   40 1
    32   15   41 1
    33   16   17 1
    34   17   18 2
    35   17   19 1
    36   19   20 1
    37   19   42 1
    38   19   43 1
    39   20   24 am
    40   20   21 1
    41   21   22 1
    42   21   44 1
    43   21   45 1
    44   22   23 1
    45   23   24 1
    46   23   46 1
    47   23   47 1
    48   24   25 2
@<TRIPOS>MOLECULE
ZINC13009806
   33    35     0     0     0
SMALL
USER_CHARGES

@<TRIPOS>ATOM
      1 C1         -0.0184    1.5028    0.0103 C.3       1 <0>        -0.0980
      2 C2          0.0021   -0.0041    0.0020 C.2       1 <0>         0.1886
      3 C3         -1.2554   -0.7575    0.0038 C.2       1 <0>        -0.1677
      4 C4         -2.5726   -0.4641    0.0120 C.2       1 <0>         0.0581
      5 O1         -3.2797   -1.6092    0.0089 O.3       1 <0>        -0.1432
      6 C5         -2.4727   -2.6814   -0.0013 C.2       1 <0>         0.3422
      7 C6         -1.1721   -2.2389   -0.0051 C.2       1 <0>        -0.2821
      8 C7          0.1574   -2.8405   -0.0151 C.2       1 <0>         0.5749
      9 O2          0.2912   -4.0513   -0.0232 O.2       1 <0>        -0.5372
     10 N1          1.2357   -2.0292   -0.0158 N.am      1 <0>        -0.5370
     11 H1          2.1190   -2.4299   -0.0227 H         1 <0>         0.4370
     12 N2          1.1327   -0.6404   -0.0122 N.2       1 <0>        -0.2473
     13 N3         -2.8803   -4.0045   -0.0062 N.am      1 <0>        -0.6172
     14 C8         -4.1941   -4.3049   -0.0013 C.2       1 <0>         0.5326
     15 O3         -5.0193   -3.4162    0.0076 O.2       1 <0>        -0.4732
     16 C9         -4.6378   -5.7451   -0.0066 C.3       1 <0>        -0.1643
     17 S1         -6.4502   -5.8195    0.0020 S.3       1 <0>         0.1499
     18 C10        -6.8061   -7.5452   -0.0053 C.2       1 <0>         0.0105
     19 N4         -5.9836   -8.5867   -0.0090 N.2       1 <0>        -0.2908
     20 N5         -6.4133   -9.7725   -0.0142 N.2       1 <0>        -0.2711
     21 C11        -7.7006  -10.0531   -0.0162 C.2       1 <0>         0.0534
     22 S2         -8.3811   -8.3970   -0.0019 S.3       1 <0>         0.0354
     23 C12        -3.1583    0.9244    0.0234 C.3       1 <0>        -0.0821
     24 H2          1.0042    1.8801    0.0026 H         1 <0>         0.0890
     25 H3         -0.5455    1.8639   -0.8728 H         1 <0>         0.0909
     26 H4         -0.5286    1.8543    0.9071 H         1 <0>         0.0905
     27 H5         -2.2202   -4.7153   -0.0133 H         1 <0>         0.4472
     28 H6         -4.2581   -6.2389   -0.9012 H         1 <0>         0.1412
     29 H7         -4.2492   -6.2483    0.8788 H         1 <0>         0.1412
     30 H8         -8.2023  -11.0094   -0.0205 H         1 <0>         0.2436
     31 H9         -3.3045    1.2654   -1.0015 H         1 <0>         0.0949
     32 H10        -4.1171    0.9100    0.5418 H         1 <0>         0.0883
     33 H11        -2.4771    1.6019    0.5381 H         1 <0>         0.1019
@<TRIPOS>BOND
     1    1    2 1
     2    1   24 1
     3    1   25 1
     4    1   26 1
     5    2   12 2
     6    2    3 1
     7    3    7 1
     8    3    4 2
     9    4    5 1
    10    4   23 1
    11    5    6 1
    12    6    7 2
    13    6   13 1
    14    7    8 1
    15    8    9 2
    16    8   10 am
    17   10   11 1
    18   10   12 1
    19   13   14 am
    20   13   27 1
    21   14   15 2
    22   14   16 1
    23   16   17 1
    24   16   28 1
    25   16   29 1
    26   17   18 1
    27   18   22 1
    28   18   19 2
    29   19   20 1
    30   20   21 2
    31   21   22 1
    32   21   30 1
    33   23   31 1
    34   23   32 1
    35   23   33 1
@<TRIPOS>MOLECULE
ZINC47003069
   56    58     0     0     0
SMALL
USER_CHARGES

@<TRIPOS>ATOM
      1 C1         -0.0185    1.5257    0.0106 C.3       1 <0>        -0.1614
      2 C2          0.0022   -0.0042    0.0021 C.3       1 <0>         0.1368
      3 C3          0.7423   -0.5111    1.2416 C.3       1 <0>        -0.1643
      4 N1         -1.3722   -0.5112    0.0126 N.am      1 <0>        -0.7304
      5 C4         -1.6431   -1.7342   -0.4848 C.2       1 <0>         0.5134
      6 O1         -0.7490   -2.4150   -0.9410 O.2       1 <0>        -0.5175
      7 C5         -3.0569   -2.2558   -0.4740 C.3       1 <0>         0.0360
      8 N2         -3.0875   -3.5998   -1.0663 N.3       1 <0>        -0.5194
      9 C6         -2.3473   -4.5585   -0.2351 C.3       1 <0>         0.0376
     10 C7         -2.2484   -5.8985   -0.9718 C.3       1 <0>         0.1385
     11 N3         -3.6039   -6.3230   -1.3534 N.am      1 <0>        -0.6319
     12 C8         -4.4574   -5.3638   -2.0708 C.3       1 <0>         0.1184
     13 C9         -4.4694   -4.0448   -1.2908 C.3       1 <0>         0.0419
     14 C10        -4.0518   -7.5584   -1.0542 C.2       1 <0>         0.7088
     15 O2         -3.3037   -8.3690   -0.5428 O.2       1 <0>        -0.5832
     16 N4         -5.3291   -7.8953   -1.3218 N.am      1 <0>        -0.7381
     17 C11        -5.8471   -9.1985   -0.8980 C.3       1 <0>         0.2451
     18 H1         -5.3978   -9.4800    0.0543 H         1 <0>         0.0933
     19 C12        -7.3716   -9.1244   -0.7480 C.3       1 <0>        -0.1258
     20 C13        -7.9361  -10.5350   -0.5594 C.3       1 <0>        -0.1088
     21 C14        -7.8126  -11.3160   -1.8735 C.3       1 <0>        -0.0574
     22 C15        -6.3972  -11.1800   -2.3764 C.2       1 <0>         0.0899
     23 C16        -5.5209  -10.2384   -1.9408 C.2       1 <0>        -0.2546
     24 C17        -4.3192  -10.4201   -2.6215 C.2       1 <0>         0.0798
     25 N5         -4.4642  -11.4341   -3.4392 N.2       1 <0>        -0.3044
     26 N6         -5.7721  -11.9272   -3.3012 N.pl3     1 <0>        -0.3700
     27 C18        -6.3506  -13.0566   -4.0332 C.3       1 <0>         0.0996
     28 H2          1.0041    1.9029    0.0028 H         1 <0>         0.0736
     29 H3         -0.5457    1.8868   -0.8724 H         1 <0>         0.0619
     30 H4         -0.5286    1.8772    0.9074 H         1 <0>         0.0607
     31 H5          0.5123   -0.3556   -0.8947 H         1 <0>         0.0888
     32 H6          0.2322   -0.1596    2.1384 H         1 <0>         0.0558
     33 H7          0.7571   -1.6009    1.2355 H         1 <0>         0.0600
     34 H8          1.7649   -0.1338    1.2338 H         1 <0>         0.0664
     35 H9         -2.0872    0.0332    0.3774 H         1 <0>         0.3988
     36 H10        -3.4189   -2.3031    0.5531 H         1 <0>         0.0642
     37 H11        -3.6947   -1.5886   -1.0537 H         1 <0>         0.1059
     38 H12        -1.3455   -4.1748   -0.0418 H         1 <0>         0.1053
     39 H13        -2.8713   -4.7008    0.7101 H         1 <0>         0.0338
     40 H14        -1.6363   -5.7804   -1.8659 H         1 <0>         0.0757
     41 H15        -1.8021   -6.6453   -0.3151 H         1 <0>         0.0972
     42 H16        -4.0576   -5.1943   -3.0706 H         1 <0>         0.0795
     43 H17        -5.4716   -5.7570   -2.1407 H         1 <0>         0.0804
     44 H18        -4.9638   -4.1943   -0.3310 H         1 <0>         0.0413
     45 H19        -5.0066   -3.2886   -1.8632 H         1 <0>         0.0891
     46 H20        -5.9053   -7.2749   -1.7951 H         1 <0>         0.3931
     47 H21        -7.6219   -8.5139    0.1196 H         1 <0>         0.0758
     48 H22        -7.8033   -8.6771   -1.6434 H         1 <0>         0.0703
     49 H23        -7.3766  -11.0486    0.2224 H         1 <0>         0.0732
     50 H24        -8.9857  -10.4708   -0.2723 H         1 <0>         0.0801
     51 H25        -8.0406  -12.3674   -1.6985 H         1 <0>         0.0811
     52 H26        -8.5047  -10.9074   -2.6098 H         1 <0>         0.0855
     53 H27        -3.4243   -9.8283   -2.4975 H         1 <0>         0.1805
     54 H28        -6.8156  -12.6952   -4.9504 H         1 <0>         0.0746
     55 H29        -5.5646  -13.7699   -4.2810 H         1 <0>         0.0897
     56 H30        -7.1021  -13.5450   -3.4129 H         1 <0>         0.0856
@<TRIPOS>BOND
     1    1    2 1
     2    1   28 1
     3    1   29 1
     4    1   30 1
     5    2    3 1
     6    2    4 1
     7    2   31 1
     8    3   32 1
     9    3   33 1
    10    3   34 1
    11    4    5 am
    12    4   35 1
    13    5    6 2
    14    5    7 1
    15    7    8 1
    16    7   36 1
    17    7   37 1
    18    8   13 1
    19    8    9 1
    20    9   10 1
    21    9   38 1
    22    9   39 1
    23   10   11 1
    24   10   40 1
    25   10   41 1
    26   11   12 1
    27   11   14 am
    28   12   13 1
    29   12   42 1
    30   12   43 1
    31   13   44 1
    32   13   45 1
    33   14   15 2
    34   14   16 am
    35   16   17 1
    36   16   46 1
    37   17   18 1
    38   17   23 1
    39   17   19 1
    40   19   20 1
    41   19   47 1
    42   19   48 1
    43   20   21 1
    44   20   49 1
    45   20   50 1
    46   21   22 1
    47   21   51 1
    48   21   52 1
    49   22   26 1
    50   22   23 2
    51   23   24 1
    52   24   25 2
    53   24   53 1
    54   25   26 1
    55   26   27 1
    56   27   54 1
    57   27   55 1
    58   27   56 1
@<TRIPOS>MOLECULE
ZINC61224939
   40    42     0     0     0
SMALL
USER_CHARGES

@<TRIPOS>ATOM
      1 C1          0.0701   -3.3052    1.5377 C.3       1 <0>         0.0645
      2 N1          0.0435   -2.1180    0.6797 N.pl3     1 <0>        -0.4078
      3 C2          0.1225   -2.1186   -0.6733 C.2       1 <0>         0.0267
      4 C3          0.0654   -0.8397   -1.1160 C.2       1 <0>        -0.2056
      5 C4         -0.0539   -0.0046   -0.0008 C.2       1 <0>        -0.1312
      6 C5         -0.0718   -0.8166    1.1133 C.2       1 <0>        -0.0579
      7 C6         -0.1886   -0.3742    2.5068 C.2       1 <0>         0.5961
      8 O1         -0.1012   -1.1834    3.4115 O.2       1 <0>        -0.5474
      9 N2         -0.3929    0.9286    2.7853 N.am      1 <0>        -0.5133
     10 N3         -0.3981    1.3681    4.1156 N.am      1 <0>        -0.5162
     11 C7         -0.6024    2.6708    4.3941 C.2       1 <0>         0.5246
     12 O2         -0.7817    3.4627    3.4932 O.2       1 <0>        -0.5325
     13 C8         -0.6079    3.1435    5.8251 C.3       1 <0>        -0.1527
     14 C9         -0.8592    4.6523    5.8628 C.3       1 <0>         0.1493
     15 N4         -0.8646    5.1118    7.2538 N.am      1 <0>        -0.5472
     16 C10        -1.9743    5.1794    8.0958 C.ar      1 <0>         0.0678
     17 C11        -3.3152    4.8697    7.9297 C.ar      1 <0>        -0.1009
     18 C12        -4.1967    5.0494    8.9779 C.ar      1 <0>        -0.0963
     19 C13        -3.7445    5.5378   10.1915 C.ar      1 <0>        -0.1059
     20 C14        -2.4099    5.8486   10.3642 C.ar      1 <0>        -0.0773
     21 C15        -1.5177    5.6711    9.3183 C.ar      1 <0>         0.0349
     22 O3         -0.1847    5.8837    9.1941 O.3       1 <0>        -0.2347
     23 C16         0.2030    5.5411    7.9556 C.2       1 <0>         0.6355
     24 O4          1.3405    5.6104    7.5314 O.2       1 <0>        -0.4805
     25 H1         -0.9508   -3.6108    1.7667 H         1 <0>         0.0781
     26 H2          0.5846   -4.1154    1.0210 H         1 <0>         0.0873
     27 H3          0.5961   -3.0727    2.4636 H         1 <0>         0.1005
     28 H4          0.2158   -2.9955   -1.2967 H         1 <0>         0.1739
     29 H5          0.1052   -0.5215   -2.1473 H         1 <0>         0.1475
     30 H6         -0.1233    1.0731   -0.0106 H         1 <0>         0.1466
     31 H7         -0.5364    1.5619    2.0648 H         1 <0>         0.4363
     32 H8         -0.2546    0.7347    4.8362 H         1 <0>         0.4346
     33 H9         -1.3970    2.6299    6.3743 H         1 <0>         0.1099
     34 H10         0.3561    2.9242    6.2839 H         1 <0>         0.1115
     35 H11        -0.0701    5.1659    5.3135 H         1 <0>         0.1111
     36 H12        -1.8233    4.8716    5.4039 H         1 <0>         0.1073
     37 H13        -3.6698    4.4892    6.9833 H         1 <0>         0.1358
     38 H14        -5.2417    4.8085    8.8500 H         1 <0>         0.1410
     39 H15        -4.4387    5.6768   11.0071 H         1 <0>         0.1438
     40 H16        -2.0618    6.2294   11.3131 H         1 <0>         0.1428
@<TRIPOS>BOND
     1    1    2 1
     2    1   25 1
     3    1   26 1
     4    1   27 1
     5    2    6 1
     6    2    3 1
     7    3    4 2
     8    3   28 1
     9    4    5 1
    10    4   29 1
    11    5    6 2
    12    5   30 1
    13    6    7 1
    14    7    8 2
    15    7    9 am
    16    9   10 1
    17    9   31 1
    18   10   11 am
    19   10   32 1
    20   11   12 2
    21   11   13 1
    22   13   14 1
    23   13   33 1
    24   13   34 1
    25   14   15 1
    26   14   35 1
    27   14   36 1
    28   15   23 am
    29   15   16 1
    30   16   21 ar
    31   16   17 ar
    32   17   18 ar
    33   17   37 1
    34   18   19 ar
    35   18   38 1
    36   19   20 ar
    37   19   39 1
    38   20   21 ar
    39   20   40 1
    40   21   22 1
    41   22   23 1
    42   23   24 2
@<TRIPOS>MOLECULE
ZINC66625540
   41    42     0     0     0
SMALL
USER_CHARGES

@<TRIPOS>ATOM
      1 C1         -0.0187    1.5258    0.0104 C.3       1 <0>        -0.1678
      2 C2          0.0021   -0.0041    0.0020 C.3       1 <0>         0.1231
      3 N1         -1.3723   -0.5112    0.0124 N.pl3     1 <0>        -0.5749
      4 C3         -2.0716   -0.7579   -1.2510 C.3       1 <0>         0.1231
      5 C4         -1.8159   -2.1971   -1.7029 C.3       1 <0>        -0.1676
      6 C5         -2.0105   -0.7573    1.2166 C.ar      1 <0>         0.5690
      7 N2         -1.3630   -0.5226    2.3497 N.ar      1 <0>        -0.5350
      8 C6         -1.9365   -0.7439    3.5188 C.ar      1 <0>         0.2152
      9 C7         -3.2380   -1.2299    3.5551 C.ar      1 <0>        -0.1631
     10 C8         -3.8920   -1.4664    2.3448 C.ar      1 <0>         0.1858
     11 N3         -3.2510   -1.2148    1.2056 N.ar      1 <0>        -0.5352
     12 C9         -5.2820   -1.9856    2.3284 C.2       1 <0>         0.5762
     13 O1         -5.8597   -2.2081    3.3737 O.2       1 <0>        -0.4912
     14 N4         -5.9035   -2.2103    1.1538 N.am      1 <0>        -0.7079
     15 C10        -7.2759   -2.7228    1.1376 C.3       1 <0>         0.2016
     16 C11        -7.7347   -2.8851   -0.2887 C.2       1 <0>         0.2650
     17 N5         -7.0295   -2.6209   -1.3412 N.2       1 <0>        -0.2696
     18 N6         -7.8098   -2.9028   -2.4711 N.pl3     1 <0>        -0.4679
     19 C12        -9.0066   -3.3450   -2.0319 C.2       1 <0>         0.4706
     20 N7         -8.9673   -3.3430   -0.6843 N.pl3     1 <0>        -0.4880
     21 C13       -10.0551   -3.7556    0.2060 C.3       1 <0>         0.0736
     22 S1        -10.3290   -3.8269   -3.0066 S.2       1 <0>        -0.5569
     23 Cl1        -4.0310   -1.5358    5.0688 Cl        1 <0>        -0.0080
     24 H1          1.0039    1.9031    0.0027 H         1 <0>         0.0699
     25 H2         -0.5459    1.8868   -0.8726 H         1 <0>         0.0548
     26 H3         -0.5289    1.8773    0.9072 H         1 <0>         0.0586
     27 H4          0.5123   -0.3556   -0.8948 H         1 <0>         0.0808
     28 H5          0.5293   -0.3651    0.8851 H         1 <0>         0.0900
     29 H6         -3.1417   -0.6062   -1.1097 H         1 <0>         0.0878
     30 H7         -1.7041   -0.0678   -2.0105 H         1 <0>         0.0810
     31 H8         -0.7458   -2.3488   -1.8443 H         1 <0>         0.0558
     32 H9         -2.1835   -2.8871   -0.9434 H         1 <0>         0.0577
     33 H10        -2.3362   -2.3807   -2.6429 H         1 <0>         0.0693
     34 H11        -1.4001   -0.5498    4.4359 H         1 <0>         0.1862
     35 H12        -5.4423   -2.0326    0.3192 H         1 <0>         0.4241
     36 H13        -7.3090   -3.6885    1.6420 H         1 <0>         0.1158
     37 H14        -7.9319   -2.0211    1.6527 H         1 <0>         0.1164
     38 H15       -10.6846   -2.8953    0.4334 H         1 <0>         0.0947
     39 H16       -10.6532   -4.5244   -0.2832 H         1 <0>         0.1148
     40 H17        -9.6368   -4.1542    1.1303 H         1 <0>         0.1006
     41 H18        -7.5396   -2.7989   -3.3969 H         1 <0>         0.4714
@<TRIPOS>BOND
     1    1    2 1
     2    1   24 1
     3    1   25 1
     4    1   26 1
     5    2    3 1
     6    2   27 1
     7    2   28 1
     8    3    4 1
     9    3    6 1
    10    4    5 1
    11    4   29 1
    12    4   30 1
    13    5   31 1
    14    5   32 1
    15    5   33 1
    16    6   11 ar
    17    6    7 ar
    18    7    8 ar
    19    8    9 ar
    20    8   34 1
    21    9   10 ar
    22    9   23 1
    23   10   11 ar
    24   10   12 1
    25   12   13 2
    26   12   14 am
    27   14   15 1
    28   14   35 1
    29   15   36 1
    30   15   37 1
    31   15   16 1
    32   16   20 1
    33   16   17 2
    34   17   18 1
    35   18   19 1
    36   18   41 1
    37   19   22 2
    38   19   20 1
    39   20   21 1
    40   21   38 1
    41   21   39 1
    42   21   40 1
@<TRIPOS>MOLECULE
ZINC13719217
   66    69     0     0     0
SMALL
USER_CHARGES
5-[(1S)-1-hydroxy-2-[4-[[2-(2-methoxyphenyl)ethylamino]methyl]phenoxy]ethyl]-1,3-dimethyl-benzimidazol-2-one
@<TRIPOS>ATOM
      1 C1         -8.5795   -8.0596   -4.9339 C.3       1 <0>         0.0970
      2 N1         -8.3841   -7.4838   -3.6011 N.am      1 <0>        -0.5417
      3 C2         -8.2235   -6.1305   -3.3134 C.ar      1 <0>         0.1015
      4 C3         -8.1949   -4.9876   -4.0981 C.ar      1 <0>        -0.0977
      5 C4         -8.0196   -3.7519   -3.5068 C.ar      1 <0>        -0.0991
      6 C5         -7.8610   -3.6505   -2.1352 C.ar      1 <0>        -0.1200
      7 C6         -7.8877   -4.7832   -1.3455 C.ar      1 <0>        -0.0870
      8 C7         -8.0688   -6.0277   -1.9296 C.ar      1 <0>         0.0949
      9 N2         -8.1403   -7.3217   -1.4193 N.am      1 <0>        -0.5421
     10 C8         -8.3297   -8.1725   -2.4455 C.2       1 <0>         0.6779
     11 O1         -8.4362   -9.3804   -2.3439 O.2       1 <0>        -0.5433
     12 C9         -8.0284   -7.6937   -0.0067 C.3       1 <0>         0.0979
     13 C10        -7.6647   -2.2979   -1.5006 C.3       1 <0>         0.1619
     14 H1         -7.9146   -2.3539   -0.4411 H         1 <0>         0.1214
     15 C11        -6.2049   -1.8676   -1.6582 C.3       1 <0>         0.0272
     16 O2         -5.9914   -0.6410   -0.9568 O.3       1 <0>        -0.2941
     17 C12        -4.7378   -0.1178   -0.9964 C.ar      1 <0>         0.1719
     18 C13        -4.4599    1.0709   -0.3374 C.ar      1 <0>        -0.1497
     19 C14        -3.1847    1.6005   -0.3788 C.ar      1 <0>        -0.0494
     20 C15        -2.1857    0.9469   -1.0763 C.ar      1 <0>        -0.2118
     21 C16        -2.4615   -0.2350   -1.7387 C.ar      1 <0>        -0.0472
     22 C17        -3.7337   -0.7717   -1.6956 C.ar      1 <0>        -0.2117
     23 C18        -0.7955    1.5269   -1.1198 C.3       1 <0>         0.0566
     24 C19         1.3525    1.5499   -0.0025 C.3       1 <0>        -0.0015
     25 C20         2.1364    0.9845    1.1836 C.3       1 <0>        -0.0903
     26 C21         3.5358    1.5437    1.1732 C.ar      1 <0>        -0.1407
     27 C22         4.5617    0.8288    0.5855 C.ar      1 <0>        -0.0712
     28 C23         5.8447    1.3433    0.5715 C.ar      1 <0>        -0.1511
     29 C24         6.1068    2.5696    1.1545 C.ar      1 <0>        -0.0639
     30 C25         5.0857    3.2858    1.7480 C.ar      1 <0>        -0.2035
     31 C26         3.7961    2.7739    1.7587 C.ar      1 <0>         0.1364
     32 O3          2.7898    3.4765    2.3424 O.3       1 <0>        -0.3230
     33 C27         3.1310    4.7357    2.9255 C.3       1 <0>         0.0237
     34 O4         -8.5143   -1.3436   -2.1406 O.3       1 <0>        -0.5392
     35 H2         -7.6106   -8.3005   -5.3713 H         1 <0>         0.0726
     36 H3         -9.1776   -8.9673   -4.8534 H         1 <0>         0.0912
     37 H4         -9.0958   -7.3395   -5.5688 H         1 <0>         0.0859
     38 H5         -8.3139   -5.0632   -5.1689 H         1 <0>         0.1366
     39 H6         -8.0018   -2.8613   -4.1174 H         1 <0>         0.1330
     40 H7         -7.7681   -4.6998   -0.2754 H         1 <0>         0.1344
     41 H8         -9.0180   -7.6878    0.4500 H         1 <0>         0.0735
     42 H9         -7.5973   -8.6917    0.0732 H         1 <0>         0.0906
     43 H10        -7.3866   -6.9784    0.5076 H         1 <0>         0.0833
     44 H11        -5.9801   -1.7256   -2.7153 H         1 <0>         0.0749
     45 H12        -5.5526   -2.6388   -1.2484 H         1 <0>         0.0800
     46 H13        -5.2398    1.5817    0.2079 H         1 <0>         0.1447
     47 H14        -2.9678    2.5257    0.1344 H         1 <0>         0.1384
     48 H15        -1.6806   -0.7412   -2.2868 H         1 <0>         0.1334
     49 H16        -3.9475   -1.6972   -2.2094 H         1 <0>         0.1391
     50 H17        -0.8526    2.6132   -1.0504 H         1 <0>         0.1352
     51 H18        -0.3144    1.2475   -2.0571 H         1 <0>         0.1343
     52 H19         1.8485    1.2706   -0.9321 H         1 <0>         0.1304
     53 H20         1.3102    2.6363    0.0746 H         1 <0>         0.1320
     54 H21         1.6404    1.2638    2.1131 H         1 <0>         0.0972
     55 H22         2.1787   -0.1019    1.1064 H         1 <0>         0.0932
     56 H23         4.3603   -0.1310    0.1331 H         1 <0>         0.1321
     57 H24         6.6445    0.7848    0.1080 H         1 <0>         0.1316
     58 H25         7.1108    2.9674    1.1462 H         1 <0>         0.1325
     59 H26         5.2909    4.2433    2.2035 H         1 <0>         0.1345
     60 H27         3.8745    4.5841    3.7080 H         1 <0>         0.0616
     61 H28         3.5400    5.3927    2.1580 H         1 <0>         0.0605
     62 H29         2.2387    5.1907    3.3554 H         1 <0>         0.1058
     63 H30        -8.3476   -1.2414   -3.0876 H         1 <0>         0.3764
     64 N3         -0.0153    0.9979    0.0149 N.4       1 <0>        -0.5189
     65 H31         0.0315   -0.0254   -0.0540 H         1 <0>         0.4295
     66 H32        -0.4755    1.2610    0.8943 H         1 <0>         0.4316
@<TRIPOS>BOND
     1    1    2 1
     2    1   35 1
     3    1   36 1
     4    1   37 1
     5    2   10 am
     6    2    3 1
     7    3    8 ar
     8    3    4 ar
     9    4    5 ar
    10    4   38 1
    11    5    6 ar
    12    5   39 1
    13    6    7 ar
    14    6   13 1
    15    7    8 ar
    16    7   40 1
    17    8    9 1
    18    9   10 am
    19    9   12 1
    20   10   11 2
    21   12   41 1
    22   12   42 1
    23   12   43 1
    24   13   14 1
    25   13   15 1
    26   13   34 1
    27   15   16 1
    28   15   44 1
    29   15   45 1
    30   16   17 1
    31   17   22 ar
    32   17   18 ar
    33   18   19 ar
    34   18   46 1
    35   19   20 ar
    36   19   47 1
    37   20   21 ar
    38   20   23 1
    39   21   22 ar
    40   21   48 1
    41   22   49 1
    42   23   50 1
    43   23   51 1
    44   23   64 1
    45   24   25 1
    46   24   52 1
    47   24   53 1
    48   24   64 1
    49   25   26 1
    50   25   54 1
    51   25   55 1
    52   26   31 ar
    53   26   27 ar
    54   27   28 ar
    55   27   56 1
    56   28   29 ar
    57   28   57 1
    58   29   30 ar
    59   29   58 1
    60   30   31 ar
    61   30   59 1
    62   31   32 1
    63   32   33 1
    64   33   60 1
    65   33   61 1
    66   33   62 1
    67   34   63 1
    68   64   65 1
    69   64   66 1
@<TRIPOS>MOLECULE
ZINC35746166
   68    70     0     0     0
SMALL
USER_CHARGES

@<TRIPOS>ATOM
      1 C1         -2.6604    2.7395    1.0910 C.3       1 <0>        -0.1558
      2 C2         -2.2343    1.2721    1.0135 C.3       1 <0>        -0.1157
      3 C3         -3.4690    0.3928    0.8057 C.3       1 <0>        -0.1132
      4 C4         -3.0493   -1.0526    0.7293 C.2       1 <0>         0.4648
      5 O1         -1.8823   -1.3489    0.8307 O.2       1 <0>        -0.4982
      6 O2         -3.9718   -2.0107    0.5487 O.3       1 <0>        -0.3429
      7 C5         -3.5030   -3.3591    0.4858 C.3       1 <0>         0.0357
      8 C6         -4.6895   -4.3024    0.2778 C.3       1 <0>         0.0929
      9 H1         -5.4283   -4.1353    1.0616 H         1 <0>         0.1369
     10 C7         -4.2044   -5.7524    0.3351 C.3       1 <0>        -0.0758
     11 N1         -5.3614   -6.6572    0.3086 N.4       1 <0>        -0.3599
     12 C8         -4.9346   -8.0092    0.6931 C.3       1 <0>         0.0375
     13 C9         -6.1425   -8.9025    0.8121 C.2       1 <0>         0.3586
     14 N2         -5.9873  -10.1804    1.2437 N.am      1 <0>        -0.6231
     15 H2         -5.1004  -10.5015    1.4698 H         1 <0>         0.4264
     16 C10        -7.0400  -11.0102    1.3643 C.2       1 <0>         0.5529
     17 O3         -6.8842  -12.1549    1.7536 O.2       1 <0>        -0.4748
     18 C11        -8.3455  -10.5282    1.0290 C.2       1 <0>        -0.1999
     19 C12        -9.6260  -11.2238    1.0755 C.2       1 <0>        -0.0214
     20 C13       -10.7448  -10.5547    0.7063 C.2       1 <0>        -0.1544
     21 S1        -10.1339   -8.9376    0.2716 S.3       1 <0>         0.1999
     22 C14        -8.4080   -9.1949    0.5924 C.2       1 <0>         0.0662
     23 N3         -7.3213   -8.4324    0.5034 N.2       1 <0>        -0.4842
     24 C15        -9.7023  -12.6366    1.5179 C.ar      1 <0>        -0.0185
     25 C16        -8.8462  -13.5895    0.9663 C.ar      1 <0>        -0.0990
     26 C17        -8.9195  -14.9041    1.3799 C.ar      1 <0>        -0.0805
     27 C18        -9.8399  -15.2804    2.3406 C.ar      1 <0>        -0.1940
     28 C19       -10.6960  -14.3385    2.8944 C.ar      1 <0>         0.1258
     29 C20       -10.6255  -13.0155    2.4900 C.ar      1 <0>        -0.1332
     30 O4        -11.5993  -14.7132    3.8381 O.3       1 <0>        -0.3169
     31 C21       -11.6123  -16.0923    4.2123 C.3       1 <0>         0.0258
     32 C22        -5.9271   -6.6892   -1.0467 C.3       1 <0>        -0.0420
     33 C23        -5.1420   -7.6842   -1.9037 C.3       1 <0>        -0.1210
     34 C24        -5.8045   -7.8081   -3.2773 C.3       1 <0>        -0.1483
     35 C25        -3.7047   -7.1880   -2.0736 C.3       1 <0>        -0.1840
     36 O5         -5.2822   -4.0484   -0.9974 O.3       1 <0>        -0.5318
     37 H3         -1.7808    3.3660    1.2390 H         1 <0>         0.0650
     38 H4         -3.1565    3.0233    0.1629 H         1 <0>         0.0590
     39 H5         -3.3475    2.8747    1.9263 H         1 <0>         0.0589
     40 H6         -1.5472    1.1370    0.1781 H         1 <0>         0.0727
     41 H7         -1.7381    0.9883    1.9416 H         1 <0>         0.0725
     42 H8         -4.1560    0.5280    1.6410 H         1 <0>         0.1103
     43 H9         -3.9651    0.6766   -0.1224 H         1 <0>         0.1109
     44 H10        -2.8061   -3.4631   -0.3458 H         1 <0>         0.0830
     45 H11        -2.9970   -3.6117    1.4176 H         1 <0>         0.0881
     46 H12        -3.5646   -5.9556   -0.5236 H         1 <0>         0.1607
     47 H13        -3.6403   -5.9107    1.2541 H         1 <0>         0.1487
     48 H14        -4.2616   -8.4074   -0.0662 H         1 <0>         0.1723
     49 H15        -4.4173   -7.9680    1.6517 H         1 <0>         0.1655
     50 H16       -11.7627  -10.9149    0.6811 H         1 <0>         0.2091
     51 H17        -8.1265  -13.2988    0.2154 H         1 <0>         0.1170
     52 H18        -8.2562  -15.6410    0.9517 H         1 <0>         0.1277
     53 H19        -9.8932  -16.3104    2.6609 H         1 <0>         0.1312
     54 H20       -11.2875  -12.2806    2.9238 H         1 <0>         0.1319
     55 H21       -11.8319  -16.7041    3.3374 H         1 <0>         0.0579
     56 H22       -10.6375  -16.3690    4.6138 H         1 <0>         0.0569
     57 H23       -12.3775  -16.2556    4.9712 H         1 <0>         0.1040
     58 H24        -6.9715   -6.9972   -0.9973 H         1 <0>         0.1518
     59 H25        -5.8618   -5.6961   -1.4912 H         1 <0>         0.1621
     60 H26        -5.1347   -8.6583   -1.4147 H         1 <0>         0.0850
     61 H27        -5.8118   -6.8340   -3.7663 H         1 <0>         0.0712
     62 H28        -5.2452   -8.5169   -3.8878 H         1 <0>         0.0755
     63 H29        -6.8284   -8.1616   -3.1562 H         1 <0>         0.0675
     64 H30        -3.2131   -7.7609   -2.8598 H         1 <0>         0.0897
     65 H31        -3.7145   -6.1324   -2.3452 H         1 <0>         0.0736
     66 H32        -3.1626   -7.3171   -1.1368 H         1 <0>         0.0622
     67 H33        -4.7027   -4.2440   -1.7464 H         1 <0>         0.3878
     68 H34        -6.0607   -6.3280    0.9573 H         1 <0>         0.4352
@<TRIPOS>BOND
     1    1    2 1
     2    1   37 1
     3    1   38 1
     4    1   39 1
     5    2    3 1
     6    2   40 1
     7    2   41 1
     8    3    4 1
     9    3   42 1
    10    3   43 1
    11    4    5 2
    12    4    6 1
    13    6    7 1
    14    7    8 1
    15    7   44 1
    16    7   45 1
    17    8    9 1
    18    8   10 1
    19    8   36 1
    20   10   11 1
    21   10   46 1
    22   10   47 1
    23   11   12 1
    24   11   32 1
    25   11   68 1
    26   12   13 1
    27   12   48 1
    28   12   49 1
    29   13   23 2
    30   13   14 1
    31   14   15 1
    32   14   16 am
    33   16   17 2
    34   16   18 1
    35   18   22 2
    36   18   19 1
    37   19   20 2
    38   19   24 1
    39   20   21 1
    40   20   50 1
    41   21   22 1
    42   22   23 1
    43   24   29 ar
    44   24   25 ar
    45   25   26 ar
    46   25   51 1
    47   26   27 ar
    48   26   52 1
    49   27   28 ar
    50   27   53 1
    51   28   29 ar
    52   28   30 1
    53   29   54 1
    54   30   31 1
    55   31   55 1
    56   31   56 1
    57   31   57 1
    58   32   33 1
    59   32   58 1
    60   32   59 1
    61   33   34 1
    62   33   35 1
    63   33   60 1
    64   34   61 1
    65   34   62 1
    66   34   63 1
    67   35   64 1
    68   35   65 1
    69   35   66 1
    70   36   67 1
@<TRIPOS>MOLECULE
ZINC36204996
   65    68     0     0     0
SMALL
USER_CHARGES

@<TRIPOS>ATOM
      1 C1          2.5030   -6.5663   -6.1756 C.3       1 <0>        -0.1557
      2 C2          1.8981   -6.2594   -4.8043 C.3       1 <0>        -0.1158
      3 C3          0.4088   -6.6098   -4.8138 C.3       1 <0>        -0.1130
      4 C4         -0.1871   -6.3074   -3.4631 C.2       1 <0>         0.4645
      5 O1          0.5081   -5.8579   -2.5830 O.2       1 <0>        -0.4968
      6 O2         -1.4902   -6.5376   -3.2376 O.3       1 <0>        -0.3445
      7 C5         -1.9876   -6.2279   -1.9343 C.3       1 <0>         0.0339
      8 C6         -3.4809   -6.5542   -1.8675 C.3       1 <0>         0.0853
      9 H1         -3.6391   -7.5930   -2.1576 H         1 <0>         0.1342
     10 C7         -3.9862   -6.3409   -0.4392 C.3       1 <0>        -0.0481
     11 N1         -5.4112   -6.6905   -0.3666 N.4       1 <0>        -0.3686
     12 C8         -5.9301   -6.3563    0.9664 C.3       1 <0>         0.0814
     13 C9         -5.8948   -4.8621    1.1591 C.2       1 <0>        -0.1092
     14 C10        -6.8386   -3.9940    0.7529 C.2       1 <0>        -0.1285
     15 C11        -6.4024   -2.7052    1.1371 C.2       1 <0>        -0.2184
     16 C12        -5.2181   -2.8628    1.7550 C.2       1 <0>         0.0137
     17 O3         -4.9183   -4.1718    1.7706 O.3       1 <0>        -0.1708
     18 C13        -5.5752   -8.1300   -0.6091 C.3       1 <0>         0.0487
     19 C14        -7.0432   -8.4674   -0.6566 C.2       1 <0>         0.3540
     20 N2         -7.4255   -9.7534   -0.8660 N.am      1 <0>        -0.6217
     21 H2         -6.7477  -10.4376   -0.9821 H         1 <0>         0.4271
     22 C15        -8.7257  -10.0984   -0.9152 C.2       1 <0>         0.5561
     23 O4         -9.0525  -11.2576   -1.1032 O.2       1 <0>        -0.4872
     24 C16        -9.7195   -9.0799   -0.7425 C.2       1 <0>        -0.1995
     25 C17       -11.1751   -9.2191   -0.7583 C.2       1 <0>        -0.0626
     26 C18       -11.8994   -8.0959   -0.5693 C.2       1 <0>        -0.1378
     27 S1        -10.7013   -6.8061   -0.3619 S.3       1 <0>         0.1869
     28 C19        -9.2284   -7.7819   -0.5315 C.2       1 <0>         0.0600
     29 N3         -7.9253   -7.5185   -0.4902 N.2       1 <0>        -0.4882
     30 C20       -13.3923   -7.9722   -0.5427 C.3       1 <0>        -0.0417
     31 C21       -13.9949   -9.2549   -1.1336 C.3       1 <0>        -0.0867
     32 H3        -13.8297   -9.2740   -2.2109 H         1 <0>         0.0793
     33 C22       -13.3093  -10.4623   -0.4873 C.3       1 <0>        -0.1208
     34 C23       -11.8643  -10.5631   -0.9772 C.3       1 <0>        -0.0615
     35 C24       -15.4966   -9.2973   -0.8439 C.3       1 <0>        -0.1498
     36 O5         -4.1963   -5.6965   -2.7590 O.3       1 <0>        -0.5422
     37 H4          3.5640   -6.3167   -6.1688 H         1 <0>         0.0652
     38 H5          2.3806   -7.6264   -6.3977 H         1 <0>         0.0588
     39 H6          1.9954   -5.9745   -6.9374 H         1 <0>         0.0590
     40 H7          2.4057   -6.8512   -4.0425 H         1 <0>         0.0728
     41 H8          2.0205   -5.1993   -4.5822 H         1 <0>         0.0728
     42 H9         -0.0988   -6.0180   -5.5756 H         1 <0>         0.1108
     43 H10         0.2863   -7.6699   -5.0359 H         1 <0>         0.1102
     44 H11        -1.4529   -6.8194   -1.1912 H         1 <0>         0.0895
     45 H12        -1.8380   -5.1675   -1.7308 H         1 <0>         0.0842
     46 H13        -3.4214   -6.9746    0.2445 H         1 <0>         0.1521
     47 H14        -3.8538   -5.2959   -0.1592 H         1 <0>         0.1459
     48 H15        -6.9572   -6.7099    1.0557 H         1 <0>         0.1718
     49 H16        -5.3135   -6.8354    1.7269 H         1 <0>         0.1432
     50 H17        -7.7538   -4.2352    0.2326 H         1 <0>         0.1616
     51 H18        -6.9205   -1.7730    0.9667 H         1 <0>         0.1635
     52 H19        -4.6128   -2.0713    2.1716 H         1 <0>         0.2181
     53 H20        -5.1109   -8.3936   -1.5594 H         1 <0>         0.1699
     54 H21        -5.0994   -8.6906    0.1956 H         1 <0>         0.1711
     55 H22       -13.7321   -7.8467    0.4853 H         1 <0>         0.0949
     56 H23       -13.7002   -7.1134   -1.1391 H         1 <0>         0.0913
     57 H24       -13.3173  -10.3460    0.5965 H         1 <0>         0.0684
     58 H25       -13.8472  -11.3713   -0.7566 H         1 <0>         0.0784
     59 H26       -11.8543  -10.8100   -2.0388 H         1 <0>         0.0838
     60 H27       -11.3417  -11.3373   -0.4153 H         1 <0>         0.0885
     61 H28       -15.9783   -8.4297   -1.2949 H         1 <0>         0.0606
     62 H29       -15.9222  -10.2086   -1.2642 H         1 <0>         0.0634
     63 H30       -15.6592   -9.2838    0.2338 H         1 <0>         0.0593
     64 H31        -4.0461   -4.7540   -2.6031 H         1 <0>         0.3938
     65 H32        -5.9209   -6.1714   -1.0658 H         1 <0>         0.4409
@<TRIPOS>BOND
     1    1    2 1
     2    1   37 1
     3    1   38 1
     4    1   39 1
     5    2    3 1
     6    2   40 1
     7    2   41 1
     8    3    4 1
     9    3   42 1
    10    3   43 1
    11    4    5 2
    12    4    6 1
    13    6    7 1
    14    7    8 1
    15    7   44 1
    16    7   45 1
    17    8    9 1
    18    8   10 1
    19    8   36 1
    20   10   11 1
    21   10   46 1
    22   10   47 1
    23   11   12 1
    24   11   18 1
    25   11   65 1
    26   12   13 1
    27   12   48 1
    28   12   49 1
    29   13   17 1
    30   13   14 2
    31   14   15 1
    32   14   50 1
    33   15   16 2
    34   15   51 1
    35   16   17 1
    36   16   52 1
    37   18   19 1
    38   18   53 1
    39   18   54 1
    40   19   29 2
    41   19   20 1
    42   20   21 1
    43   20   22 am
    44   22   23 2
    45   22   24 1
    46   24   28 2
    47   24   25 1
    48   25   34 1
    49   25   26 2
    50   26   27 1
    51   26   30 1
    52   27   28 1
    53   28   29 1
    54   30   31 1
    55   30   55 1
    56   30   56 1
    57   31   32 1
    58   31   33 1
    59   31   35 1
    60   33   34 1
    61   33   57 1
    62   33   58 1
    63   34   59 1
    64   34   60 1
    65   35   61 1
    66   35   62 1
    67   35   63 1
    68   36   64 1
@<TRIPOS>MOLECULE
ZINC36313124
   63    65     0     0     0
SMALL
USER_CHARGES

@<TRIPOS>ATOM
      1 C1          1.1175    4.9107    2.1697 C.3       1 <0>        -0.1518
      2 C2          0.5864    3.5266    1.7912 C.3       1 <0>        -0.0189
      3 C3          0.9902    3.2015    0.3517 C.3       1 <0>        -0.1516
      4 C4          1.1683    2.4937    2.7216 C.2       1 <0>        -0.1138
      5 C5          0.5190    1.6566    3.5465 C.2       1 <0>        -0.1093
      6 C6          1.2834    0.7327    4.3633 C.2       1 <0>        -0.2025
      7 C7          0.8222   -0.2434    5.3058 C.2       1 <0>         0.5571
      8 O1         -0.3700   -0.3869    5.5151 O.2       1 <0>        -0.4910
      9 N1          1.7263   -0.9994    5.9561 N.am      1 <0>        -0.6222
     10 H1          1.4201   -1.6617    6.5952 H         1 <0>         0.4271
     11 C8          3.0581   -0.8540    5.7351 C.2       1 <0>         0.3537
     12 N2          3.5098    0.0267    4.8829 N.2       1 <0>        -0.4866
     13 C9          2.6785    0.8103    4.2023 C.2       1 <0>         0.0598
     14 S1          2.8836    2.0848    2.9850 S.3       1 <0>         0.1895
     15 C10         4.0324   -1.7239    6.4868 C.3       1 <0>         0.0465
     16 N3          5.3911   -1.4876    5.9810 N.4       1 <0>        -0.3618
     17 C11         5.4902   -1.9733    4.5982 C.3       1 <0>        -0.0349
     18 C12         5.2737   -3.4877    4.5728 C.3       1 <0>        -0.1478
     19 C13         5.4724   -4.0075    3.1476 C.3       1 <0>         0.0625
     20 O2          5.2701   -5.4219    3.1239 O.3       1 <0>        -0.3907
     21 C14         5.4330   -6.0108    1.8321 C.3       1 <0>         0.0299
     22 C15         6.3585   -2.2048    6.8224 C.3       1 <0>        -0.0559
     23 C16         7.7799   -1.8277    6.4000 C.3       1 <0>         0.0925
     24 H2          7.8797   -0.7423    6.3890 H         1 <0>         0.1377
     25 C17         8.7813   -2.4218    7.3924 C.3       1 <0>         0.0291
     26 O3         10.0985   -1.9741    7.0657 O.3       1 <0>        -0.2977
     27 C18        11.1134   -2.4138    7.8557 C.ar      1 <0>         0.1238
     28 C19        10.8473   -3.2632    8.9197 C.ar      1 <0>        -0.1969
     29 C20        11.8801   -3.7090    9.7215 C.ar      1 <0>        -0.0695
     30 C21        13.1793   -3.3084    9.4642 C.ar      1 <0>        -0.0655
     31 C22        13.4467   -2.4609    8.4036 C.ar      1 <0>        -0.0671
     32 C23        12.4173   -2.0183    7.5955 C.ar      1 <0>        -0.1309
     33 Cl1        14.4755   -3.8695   10.4735 Cl        1 <0>        -0.0569
     34 O4          8.0411   -2.3434    5.0932 O.3       1 <0>        -0.5364
     35 H3          2.2043    4.9180    2.0866 H         1 <0>         0.0593
     36 H4          0.6966    5.6577    1.4967 H         1 <0>         0.0746
     37 H5          0.8298    5.1423    3.1952 H         1 <0>         0.0631
     38 H6         -0.5004    3.5192    1.8743 H         1 <0>         0.1038
     39 H7          2.0770    3.2089    0.2687 H         1 <0>         0.0592
     40 H8          0.6119    2.2154    0.0821 H         1 <0>         0.0628
     41 H9          0.5693    3.9486   -0.3212 H         1 <0>         0.0747
     42 H10        -0.5595    1.6712    3.6017 H         1 <0>         0.1528
     43 H11         3.9925   -1.4805    7.5486 H         1 <0>         0.1696
     44 H12         3.7687   -2.7719    6.3442 H         1 <0>         0.1661
     45 H13         4.7297   -1.4873    3.9870 H         1 <0>         0.1402
     46 H14         6.4784   -1.7409    4.2014 H         1 <0>         0.1702
     47 H15         5.9908   -3.9685    5.2381 H         1 <0>         0.0917
     48 H16         4.2608   -3.7155    4.9047 H         1 <0>         0.0892
     49 H17         4.7552   -3.5267    2.4822 H         1 <0>         0.0588
     50 H18         6.4853   -3.7797    2.8156 H         1 <0>         0.0661
     51 H19         4.7151   -5.5716    1.1394 H         1 <0>         0.0475
     52 H20         6.4451   -5.8245    1.4728 H         1 <0>         0.0494
     53 H21         5.2631   -7.0854    1.8986 H         1 <0>         0.0956
     54 H22         6.2050   -1.9313    7.8663 H         1 <0>         0.1513
     55 H23         6.2171   -3.2790    6.7036 H         1 <0>         0.1478
     56 H24         8.5277   -2.0986    8.4021 H         1 <0>         0.0843
     57 H25         8.7438   -3.5099    7.3391 H         1 <0>         0.0794
     58 H26         9.8333   -3.5755    9.1213 H         1 <0>         0.1337
     59 H27        11.6734   -4.3702   10.5500 H         1 <0>         0.1397
     60 H28        14.4613   -2.1491    8.2045 H         1 <0>         0.1459
     61 H29        12.6270   -1.3606    6.7649 H         1 <0>         0.1435
     62 H30         7.9701   -3.3056    5.0287 H         1 <0>         0.3894
     63 H31         5.5919   -0.4991    6.0055 H         1 <0>         0.4406
@<TRIPOS>BOND
     1    1    2 1
     2    1   35 1
     3    1   36 1
     4    1   37 1
     5    2    3 1
     6    2    4 1
     7    2   38 1
     8    3   39 1
     9    3   40 1
    10    3   41 1
    11    4   14 1
    12    4    5 2
    13    5    6 1
    14    5   42 1
    15    6   13 2
    16    6    7 1
    17    7    8 2
    18    7    9 am
    19    9   10 1
    20    9   11 1
    21   11   12 2
    22   11   15 1
    23   12   13 1
    24   13   14 1
    25   15   16 1
    26   15   43 1
    27   15   44 1
    28   16   17 1
    29   16   22 1
    30   16   63 1
    31   17   18 1
    32   17   45 1
    33   17   46 1
    34   18   19 1
    35   18   47 1
    36   18   48 1
    37   19   20 1
    38   19   49 1
    39   19   50 1
    40   20   21 1
    41   21   51 1
    42   21   52 1
    43   21   53 1
    44   22   23 1
    45   22   54 1
    46   22   55 1
    47   23   24 1
    48   23   25 1
    49   23   34 1
    50   25   26 1
    51   25   56 1
    52   25   57 1
    53   26   27 1
    54   27   32 ar
    55   27   28 ar
    56   28   29 ar
    57   28   58 1
    58   29   30 ar
    59   29   59 1
    60   30   31 ar
    61   30   33 1
    62   31   32 ar
    63   31   60 1
    64   32   61 1
    65   34   62 1
@<TRIPOS>MOLECULE
ZINC60391012
   66    67     0     0     0
SMALL
USER_CHARGES

@<TRIPOS>ATOM
      1 C1         -1.6111   -1.5899   -0.9354 C.3       1 <0>        -0.1922
      2 C2         -0.3530   -2.4591   -0.8835 C.3       1 <0>        -0.0222
      3 N1          0.8377   -1.5993   -0.9102 N.4       1 <0>        -0.3830
      4 C3          2.0393   -2.4205   -0.7109 C.3       1 <0>        -0.0286
      5 C4          3.1216   -1.5832   -0.0264 C.3       1 <0>        -0.1919
      6 C5          0.9204   -0.9176   -2.2089 C.3       1 <0>         0.0638
      7 H1         -0.0004   -0.3623   -2.3870 H         1 <0>         0.1530
      8 C6          2.1060    0.0494   -2.2027 C.3       1 <0>         0.0905
      9 N2          1.9634    0.9898   -1.0884 N.am      1 <0>        -0.7444
     10 C7          2.8383    2.0053   -0.9474 C.2       1 <0>         0.5255
     11 O1          3.6969    2.1866   -1.7845 O.2       1 <0>        -0.5022
     12 C8          2.7496    2.9154    0.2505 C.3       1 <0>         0.1337
     13 H2          1.7353    3.3049    0.3366 H         1 <0>         0.1254
     14 C9          3.1034    2.1300    1.5150 C.3       1 <0>        -0.1082
     15 C10         2.9916    3.0483    2.7336 C.3       1 <0>        -0.0818
     16 S1          3.4111    2.1171    4.2329 S.3       1 <0>        -0.2741
     17 C11         3.2322    3.3317    5.5683 C.3       1 <0>        -0.1143
     18 N3          3.6881    4.0286    0.0884 N.am      1 <0>        -0.7112
     19 C12         3.4632    5.1971    0.7213 C.2       1 <0>         0.5715
     20 O2          2.4818    5.3272    1.4266 O.2       1 <0>        -0.5149
     21 C13         4.4103    6.3206    0.5578 C.ar      1 <0>        -0.1411
     22 C14         5.5353    6.1763   -0.2559 C.ar      1 <0>        -0.0366
     23 C15         6.4147    7.2285   -0.4046 C.ar      1 <0>        -0.1178
     24 C16         6.1839    8.4250    0.2512 C.ar      1 <0>        -0.0243
     25 C17         5.0712    8.5744    1.0595 C.ar      1 <0>        -0.0530
     26 C18         4.1804    7.5318    1.2118 C.ar      1 <0>         0.0040
     27 N4          4.8325    9.8576    1.7575 N.pl3     1 <0>         0.0286
     28 O3          5.6095   10.7737    1.6210 O.2       1 <0>        -0.1437
     29 O4          3.8605    9.9896    2.4642 O.3       1 <0>        -0.1469
     30 C19         1.1106   -1.9386   -3.3009 C.ar      1 <0>        -0.1465
     31 C20         2.3838   -2.2576   -3.7347 C.ar      1 <0>        -0.1027
     32 C21         2.5582   -3.1941   -4.7364 C.ar      1 <0>        -0.1065
     33 C22         1.4596   -3.8120   -5.3039 C.ar      1 <0>        -0.0813
     34 C23         0.1865   -3.4936   -4.8695 C.ar      1 <0>        -0.1079
     35 C24         0.0122   -2.5602   -3.8648 C.ar      1 <0>        -0.0977
     36 H3         -1.6676   -0.9784   -0.0348 H         1 <0>         0.0840
     37 H4         -1.5698   -0.9430   -1.8118 H         1 <0>         0.0783
     38 H5         -2.4920   -2.2289   -0.9967 H         1 <0>         0.1104
     39 H6         -0.3557   -3.0476    0.0340 H         1 <0>         0.1355
     40 H7         -0.3377   -3.1279   -1.7440 H         1 <0>         0.1355
     41 H8          1.7934   -3.2783   -0.0848 H         1 <0>         0.1341
     42 H9          2.4058   -2.7687   -1.6766 H         1 <0>         0.1392
     43 H10         3.8421   -2.2442    0.4552 H         1 <0>         0.1075
     44 H11         3.6312   -0.9703   -0.7699 H         1 <0>         0.0862
     45 H12         2.6624   -0.9385    0.7231 H         1 <0>         0.0780
     46 H13         3.0328   -0.5127   -2.0873 H         1 <0>         0.1069
     47 H14         2.1301    0.6008   -3.1426 H         1 <0>         0.1205
     48 H15         1.2392    0.8816   -0.4522 H         1 <0>         0.3970
     49 H16         2.4151    1.2923    1.6269 H         1 <0>         0.0832
     50 H17         4.1235    1.7540    1.4357 H         1 <0>         0.0872
     51 H18         3.6799    3.8860    2.6217 H         1 <0>         0.0842
     52 H19         1.9716    3.4242    2.8129 H         1 <0>         0.0951
     53 H20         2.2071    3.7017    5.5880 H         1 <0>         0.0806
     54 H21         3.4665    2.8598    6.5224 H         1 <0>         0.1061
     55 H22         3.9155    4.1635    5.3968 H         1 <0>         0.0787
     56 H23         4.4713    3.9247   -0.4743 H         1 <0>         0.4139
     57 H24         5.7169    5.2427   -0.7677 H         1 <0>         0.1465
     58 H25         7.2855    7.1182   -1.0339 H         1 <0>         0.1595
     59 H26         6.8757    9.2457    0.1318 H         1 <0>         0.1639
     60 H27         3.3097    7.6512    1.8395 H         1 <0>         0.1676
     61 H28         3.2421   -1.7749   -3.2912 H         1 <0>         0.1349
     62 H29         3.5529   -3.4429   -5.0758 H         1 <0>         0.1392
     63 H30         1.5959   -4.5431   -6.0870 H         1 <0>         0.1384
     64 H31        -0.6719   -3.9761   -5.3131 H         1 <0>         0.1388
     65 H32        -0.9822   -2.3142   -3.5228 H         1 <0>         0.1333
     66 H33         0.7735   -0.9128   -0.1735 H         1 <0>         0.4148
@<TRIPOS>BOND
     1    1    2 1
     2    1   36 1
     3    1   37 1
     4    1   38 1
     5    2    3 1
     6    2   39 1
     7    2   40 1
     8    3    4 1
     9    3    6 1
    10    3   66 1
    11    4    5 1
    12    4   41 1
    13    4   42 1
    14    5   43 1
    15    5   44 1
    16    5   45 1
    17    6    7 1
    18    6    8 1
    19    6   30 1
    20    8    9 1
    21    8   46 1
    22    8   47 1
    23    9   10 am
    24    9   48 1
    25   10   11 2
    26   10   12 1
    27   12   13 1
    28   12   14 1
    29   12   18 1
    30   14   15 1
    31   14   49 1
    32   14   50 1
    33   15   16 1
    34   15   51 1
    35   15   52 1
    36   16   17 1
    37   17   53 1
    38   17   54 1
    39   17   55 1
    40   18   19 am
    41   18   56 1
    42   19   20 2
    43   19   21 1
    44   21   26 ar
    45   21   22 ar
    46   22   23 ar
    47   22   57 1
    48   23   24 ar
    49   23   58 1
    50   24   25 ar
    51   24   59 1
    52   25   26 ar
    53   25   27 1
    54   26   60 1
    55   27   28 2
    56   27   29 1
    57   30   35 ar
    58   30   31 ar
    59   31   32 ar
    60   31   61 1
    61   32   33 ar
    62   32   62 1
    63   33   34 ar
    64   33   63 1
    65   34   35 ar
    66   34   64 1
    67   35   65 1
@<TRIPOS>MOLECULE
ZINC30223900
   49    52     0     0     0
SMALL
USER_CHARGES
6-amino-1-cyclopropyl-5-[2-[(4R)-4-ethyl-6,7-dihydro-4H-thieno[3,2-c]pyridin-5-yl]acetyl]pyrimidine-2,4-dione
@<TRIPOS>ATOM
      1 C1         -0.4279    3.0445    0.7454 C.3       1 <0>        -0.1732
      2 C2         -0.6463    1.5390    0.9087 C.3       1 <0>        -0.1473
      3 C3         -0.0070    0.8003   -0.2689 C.3       1 <0>         0.1067
      4 H1         -0.2189   -0.2768   -0.1990 H         1 <0>         0.1418
      5 C4          1.4963    1.0609   -0.2816 C.2       1 <0>        -0.1419
      6 C5          2.2918    1.0752    0.8616 C.2       1 <0>        -0.1494
      7 C6          3.6198    1.3165    0.7592 C.2       1 <0>        -0.1527
      8 S1          3.8189    1.5416   -1.0025 S.3       1 <0>         0.1317
      9 C7          2.1278    1.2975   -1.4656 C.2       1 <0>        -0.1885
     10 C8          1.4993    1.3321   -2.8204 C.3       1 <0>        -0.0602
     11 C9          0.0965    0.7125   -2.7019 C.3       1 <0>         0.0040
     12 N1         -0.5784    1.2887   -1.5303 N.4       1 <0>        -0.3964
     13 C10        -2.0258    1.0428   -1.5827 C.3       1 <0>        -0.0376
     14 C11        -2.6397    1.8873   -2.6695 C.2       1 <0>         0.4345
     15 O1         -1.9394    2.6227   -3.3358 O.2       1 <0>        -0.5189
     16 C12        -4.0283    1.8236   -2.9130 C.2       1 <0>        -0.4777
     17 C13        -4.6051    2.4970   -4.0038 C.2       1 <0>         0.5833
     18 N2         -5.9538    2.4054   -4.1983 N.am      1 <0>        -0.5403
     19 C14        -6.7309    1.6887   -3.3713 C.2       1 <0>         0.7095
     20 O2         -7.9260    1.6390   -3.5874 O.2       1 <0>        -0.5099
     21 N3         -6.2367    1.0247   -2.3138 N.am      1 <0>        -0.6754
     22 H2         -6.9110    0.4533   -1.6590 H         1 <0>         0.4713
     23 C15        -4.9162    1.0467   -2.0385 C.2       1 <0>         0.5897
     24 O3         -4.4707    0.4392   -1.0825 O.2       1 <0>        -0.5254
     25 C16        -6.5645    3.1032   -5.3324 C.3       1 <0>        -0.0483
     26 C17        -7.5616    2.3207   -6.1895 C.3       1 <0>        -0.0978
     27 C18        -6.1709    2.6457   -6.7384 C.3       1 <0>        -0.1171
     28 N4         -3.8323    3.2277   -4.8523 N.pl3     1 <0>        -0.8047
     29 H3         -0.8875    3.5756    1.5920 H         1 <0>         0.0867
     30 H4         -0.8901    3.3823   -0.1939 H         1 <0>         0.0472
     31 H5          0.6509    3.2579    0.7207 H         1 <0>         0.0758
     32 H6         -0.1841    1.2012    1.8480 H         1 <0>         0.1151
     33 H7         -1.7251    1.3255    0.9334 H         1 <0>         0.0958
     34 H8          1.8492    0.8934    1.8298 H         1 <0>         0.1430
     35 H9          4.3652    1.3618    1.5394 H         1 <0>         0.1984
     36 H10         1.4290    2.3742   -3.1655 H         1 <0>         0.1131
     37 H11         2.1146    0.7533   -3.5250 H         1 <0>         0.1274
     38 H12        -0.4807    0.9352   -3.6115 H         1 <0>         0.1418
     39 H13         0.1859   -0.3773   -2.5820 H         1 <0>         0.1296
     40 H14        -2.2096   -0.0204   -1.7966 H         1 <0>         0.1626
     41 H15        -2.4777    1.3055   -0.6148 H         1 <0>         0.1724
     42 H16        -6.5680    4.0536   -4.7787 H         1 <0>         0.1491
     43 H17        -7.8360    1.3886   -5.6738 H         1 <0>         0.1281
     44 H18        -8.4634    2.9296   -6.3509 H         1 <0>         0.1309
     45 H19        -5.9230    3.5233   -7.3536 H         1 <0>         0.1268
     46 H20        -5.2957    1.9823   -6.6766 H         1 <0>         0.1050
     47 H21        -4.2930    3.7511   -5.7031 H         1 <0>         0.4359
     48 H22        -2.7468    3.2951   -4.6875 H         1 <0>         0.4648
     49 H23        -0.4116    2.3755   -1.5613 H         1 <0>         0.4407
@<TRIPOS>BOND
     1    1    2 1
     2    1   29 1
     3    1   30 1
     4    1   31 1
     5    2    3 1
     6    2   32 1
     7    2   33 1
     8    3    4 1
     9    3   12 1
    10    3    5 1
    11    5    9 2
    12    5    6 1
    13    6    7 2
    14    6   34 1
    15    7    8 1
    16    7   35 1
    17    8    9 1
    18    9   10 1
    19   10   11 1
    20   10   36 1
    21   10   37 1
    22   11   12 1
    23   11   38 1
    24   11   39 1
    25   12   13 1
    26   12   49 1
    27   13   14 1
    28   13   40 1
    29   13   41 1
    30   14   15 2
    31   14   16 1
    32   16   23 1
    33   16   17 2
    34   17   18 1
    35   17   28 1
    36   18   19 am
    37   18   25 1
    38   19   20 2
    39   19   21 am
    40   21   22 1
    41   21   23 am
    42   23   24 2
    43   25   27 1
    44   25   26 1
    45   25   42 1
    46   26   27 1
    47   26   43 1
    48   26   44 1
    49   27   45 1
    50   27   46 1
    51   28   47 1
    52   28   48 1
@<TRIPOS>MOLECULE
ZINC41447423
   51    52     0     0     0
SMALL
USER_CHARGES

@<TRIPOS>ATOM
      1 C1          0.1738    1.4892    2.7527 C.3       1 <0>        -0.0503
      2 N1         -0.0975    0.0904    2.3952 N.4       1 <0>        -0.3836
      3 C2         -1.5461   -0.1059    2.2504 C.3       1 <0>        -0.0548
      4 C3          0.5692   -0.2286    1.1256 C.3       1 <0>         0.1208
      5 H1          0.1526    0.3903    0.3309 H         1 <0>         0.1586
      6 C4          0.3487   -1.7051    0.7908 C.3       1 <0>         0.1244
      7 N2          0.9061   -1.9942   -0.5328 N.am      1 <0>        -0.7423
      8 C5          0.9212   -3.2598   -0.9960 C.2       1 <0>         0.7094
      9 O1          0.4721   -4.1616   -0.3153 O.2       1 <0>        -0.5798
     10 N3          1.4340   -3.5257   -2.2137 N.am      1 <0>        -0.7325
     11 C6          1.4503   -4.9014   -2.7171 C.3       1 <0>         0.1089
     12 C7          2.0805   -4.9269   -4.1110 C.3       1 <0>         0.1473
     13 H2          3.1011   -4.5483   -4.0554 H         1 <0>         0.1136
     14 C8          2.0973   -6.3421   -4.6289 C.ar      1 <0>        -0.1653
     15 C9          0.9860   -6.8548   -5.2722 C.ar      1 <0>        -0.0667
     16 C10         0.9987   -8.1519   -5.7474 C.ar      1 <0>        -0.1478
     17 C11         2.1280   -8.9400   -5.5791 C.ar      1 <0>         0.1382
     18 C12         3.2419   -8.4230   -4.9337 C.ar      1 <0>        -0.2058
     19 C13         3.2260   -7.1236   -4.4649 C.ar      1 <0>        -0.0633
     20 O2          2.1428  -10.2164   -6.0453 O.3       1 <0>        -0.3148
     21 C14         3.3393  -10.9695   -5.8367 C.3       1 <0>         0.0249
     22 O3          1.3151   -4.1053   -4.9949 O.3       1 <0>        -0.5520
     23 C15         2.0462    0.0428    1.2517 C.2       1 <0>        -0.2588
     24 C16         2.8917    0.5998    0.3505 C.2       1 <0>        -0.0761
     25 C17         4.2236    0.7535    0.6869 C.2       1 <0>        -0.1722
     26 C18         4.6447    0.3427    1.9081 C.2       1 <0>        -0.1116
     27 S1          3.1347   -0.2786    2.6298 S.3       1 <0>         0.0626
     28 H3         -0.2051    2.1447    1.9686 H         1 <0>         0.1264
     29 H4         -0.3209    1.7259    3.6947 H         1 <0>         0.1316
     30 H5          1.2487    1.6349    2.8601 H         1 <0>         0.1238
     31 H6         -1.9049    0.4579    1.3893 H         1 <0>         0.1280
     32 H7         -1.7563   -1.1654    2.1043 H         1 <0>         0.1292
     33 H8         -2.0519    0.2441    3.1503 H         1 <0>         0.1335
     34 H9          0.8451   -2.3250    1.5374 H         1 <0>         0.0931
     35 H10        -0.7195   -1.9221    0.7904 H         1 <0>         0.0943
     36 H11         1.2644   -1.2747   -1.0759 H         1 <0>         0.4016
     37 H12         1.7922   -2.8063   -2.7567 H         1 <0>         0.4034
     38 H13         2.0341   -5.5281   -2.0429 H         1 <0>         0.0819
     39 H14         0.4297   -5.2801   -2.7727 H         1 <0>         0.0763
     40 H15         0.1072   -6.2409   -5.4030 H         1 <0>         0.1279
     41 H16         0.1302   -8.5522   -6.2492 H         1 <0>         0.1356
     42 H17         4.1222   -9.0346   -4.8014 H         1 <0>         0.1327
     43 H18         4.0945   -6.7193   -3.9663 H         1 <0>         0.1272
     44 H19         3.2176  -11.9683   -6.2558 H         1 <0>         0.1048
     45 H20         4.1739  -10.4687   -6.3273 H         1 <0>         0.0581
     46 H21         3.5388  -11.0457   -4.7678 H         1 <0>         0.0577
     47 H22         0.3944   -4.3843   -5.0928 H         1 <0>         0.3785
     48 H23         2.5303    0.9183   -0.6160 H         1 <0>         0.1439
     49 H24         4.9183    1.1939   -0.0129 H         1 <0>         0.1522
     50 H25         5.6358    0.3843    2.3352 H         1 <0>         0.2009
     51 H26         0.2533   -0.5164    3.1210 H         1 <0>         0.4267
@<TRIPOS>BOND
     1    1    2 1
     2    1   28 1
     3    1   29 1
     4    1   30 1
     5    2    3 1
     6    2    4 1
     7    2   51 1
     8    3   31 1
     9    3   32 1
    10    3   33 1
    11    4    5 1
    12    4    6 1
    13    4   23 1
    14    6    7 1
    15    6   34 1
    16    6   35 1
    17    7    8 am
    18    7   36 1
    19    8    9 2
    20    8   10 am
    21   10   11 1
    22   10   37 1
    23   11   12 1
    24   11   38 1
    25   11   39 1
    26   12   13 1
    27   12   14 1
    28   12   22 1
    29   14   19 ar
    30   14   15 ar
    31   15   16 ar
    32   15   40 1
    33   16   17 ar
    34   16   41 1
    35   17   18 ar
    36   17   20 1
    37   18   19 ar
    38   18   42 1
    39   19   43 1
    40   20   21 1
    41   21   44 1
    42   21   45 1
    43   21   46 1
    44   22   47 1
    45   23   27 1
    46   23   24 2
    47   24   25 1
    48   24   48 1
    49   25   26 2
    50   25   49 1
    51   26   27 1
    52   26   50 1
@<TRIPOS>MOLECULE
ZINC07675833
   52    54     0     0     0
SMALL
USER_CHARGES

@<TRIPOS>ATOM
      1 C1         -0.0184    1.5028    0.0103 C.3       1 <0>        -0.1195
      2 C2          0.0021   -0.0041    0.0020 C.ar      1 <0>        -0.0815
      3 C3          0.0057   -0.6873   -1.2005 C.ar      1 <0>        -0.0994
      4 C4          0.0239   -2.0679   -1.2119 C.ar      1 <0>        -0.0909
      5 C5          0.0391   -2.7710   -0.0132 C.ar      1 <0>        -0.0965
      6 C6          0.0359   -2.0810    1.1932 C.ar      1 <0>        -0.1288
      7 C7          0.0229   -0.7003    1.1969 C.ar      1 <0>        -0.1021
      8 S1          0.0619   -4.5328   -0.0229 S.3       1 <0>        -0.0879
      9 C8          0.0766   -4.9812    1.7348 C.3       1 <0>        -0.1344
     10 C9          0.0970   -6.5048    1.8722 C.3       1 <0>         0.1367
     11 N1          0.1090   -6.8669    3.2917 N.am      1 <0>        -0.7135
     12 C10         0.1276   -8.1644    3.6561 C.2       1 <0>         0.4913
     13 O1          0.1345   -9.0321    2.8088 O.2       1 <0>        -0.5117
     14 C11         0.1399   -8.5369    5.1163 C.3       1 <0>         0.0861
     15 N2          0.1594   -9.9958    5.2479 N.pl3     1 <0>        -0.4590
     16 C12        -0.9449  -10.8289    5.3219 C.ar      1 <0>         0.0946
     17 C13        -2.3146  -10.6139    5.3017 C.ar      1 <0>        -0.0874
     18 C14        -3.1793  -11.6846    5.3981 C.ar      1 <0>        -0.0724
     19 C15        -2.6878  -12.9763    5.5152 C.ar      1 <0>        -0.0843
     20 C16        -1.3308  -13.2082    5.5374 C.ar      1 <0>        -0.0765
     21 C17        -0.4418  -12.1348    5.4403 C.ar      1 <0>         0.0624
     22 N3          0.9142  -12.0431    5.4335 N.pl3     1 <0>        -0.5346
     23 C18         1.2694  -10.7881    5.3146 C.cat     1 <0>         0.6535
     24 N4          2.5707  -10.3341    5.2673 N.pl3     1 <0>        -0.6718
     25 C19         3.6818  -11.2855    5.3484 C.3       1 <0>         0.1024
     26 C20         5.0088  -10.5276    5.2734 C.3       1 <0>         0.0620
     27 O2          5.1442   -9.6893    6.4228 O.3       1 <0>        -0.5757
     28 H1          1.0042    1.8801    0.0026 H         1 <0>         0.0746
     29 H2         -0.5455    1.8639   -0.8728 H         1 <0>         0.0708
     30 H3         -0.5286    1.8543    0.9071 H         1 <0>         0.0690
     31 H4         -0.0061   -0.1403   -2.1316 H         1 <0>         0.1320
     32 H5          0.0260   -2.6008   -2.1513 H         1 <0>         0.1303
     33 H6          0.0477   -2.6241    2.1266 H         1 <0>         0.1196
     34 H7          0.0244   -0.1634    2.1339 H         1 <0>         0.1273
     35 H8          0.9637   -4.5616    2.2093 H         1 <0>         0.0972
     36 H9         -0.8161   -4.5846    2.2184 H         1 <0>         0.0981
     37 H10        -0.7900   -6.9244    1.3977 H         1 <0>         0.0880
     38 H11         0.9898   -6.9014    1.3886 H         1 <0>         0.0864
     39 H12         0.1034   -6.1729    3.9694 H         1 <0>         0.4086
     40 H13         1.0269   -8.1173    5.5908 H         1 <0>         0.1371
     41 H14        -0.7529   -8.1403    5.5999 H         1 <0>         0.1521
     42 H15        -2.7037   -9.6105    5.2111 H         1 <0>         0.1443
     43 H16        -4.2460  -11.5159    5.3826 H         1 <0>         0.1538
     44 H17        -3.3746  -13.8064    5.5899 H         1 <0>         0.1544
     45 H18        -0.9548  -14.2165    5.6288 H         1 <0>         0.1505
     46 H19         2.7504   -9.3849    5.1803 H         1 <0>         0.4362
     47 H20         3.6266  -11.8290    6.2917 H         1 <0>         0.0976
     48 H21         3.6183  -11.9899    4.5190 H         1 <0>         0.1034
     49 H22         5.8331  -11.2402    5.2443 H         1 <0>         0.0870
     50 H23         5.0265   -9.9145    4.3724 H         1 <0>         0.0660
     51 H24         5.9645   -9.1776    6.4419 H         1 <0>         0.3992
     52 H25         1.5255  -12.7931    5.5018 H         1 <0>         0.4552
@<TRIPOS>BOND
     1    1    2 1
     2    1   28 1
     3    1   29 1
     4    1   30 1
     5    2    7 ar
     6    2    3 ar
     7    3    4 ar
     8    3   31 1
     9    4    5 ar
    10    4   32 1
    11    5    6 ar
    12    5    8 1
    13    6    7 ar
    14    6   33 1
    15    7   34 1
    16    8    9 1
    17    9   10 1
    18    9   35 1
    19    9   36 1
    20   10   11 1
    21   10   37 1
    22   10   38 1
    23   11   12 am
    24   11   39 1
    25   12   13 2
    26   12   14 1
    27   14   15 1
    28   14   40 1
    29   14   41 1
    30   15   23 1
    31   15   16 1
    32   16   21 ar
    33   16   17 ar
    34   17   18 ar
    35   17   42 1
    36   18   19 ar
    37   18   43 1
    38   19   20 ar
    39   19   44 1
    40   20   21 ar
    41   20   45 1
    42   21   22 1
    43   22   23 2
    44   22   52 1
    45   23   24 1
    46   24   25 1
    47   24   46 1
    48   25   26 1
    49   25   47 1
    50   25   48 1
    51   26   27 1
    52   26   49 1
    53   26   50 1
    54   27   51 1
@<TRIPOS>MOLECULE
ZINC61992631
   38    39     0     0     0
SMALL
USER_CHARGES

@<TRIPOS>ATOM
      1 C1          0.6289    1.8596   -0.2764 C.3       1 <0>        -0.0549
      2 N1          0.5889    0.3988   -0.1275 N.4       1 <0>        -0.3562
      3 C2          1.1114   -0.2322   -1.3469 C.3       1 <0>        -0.0125
      4 C3          0.1821    0.0806   -2.5214 C.3       1 <0>         0.0908
      5 N2          0.7032   -0.5487   -3.7374 N.pl3     1 <0>        -1.1097
      6 S1         -0.2696   -0.7113   -5.0676 S.o2      1 <0>         2.6900
      7 O1          0.5237   -1.3167   -6.0793 O.2       1 <0>        -0.9135
      8 O2         -1.4886   -1.2820   -4.6120 O.2       1 <0>        -0.9369
      9 C4         -0.6542    0.9124   -5.6335 C.ar      1 <0>        -0.6008
     10 C5         -1.9621    1.3610   -5.6079 C.ar      1 <0>        -0.0686
     11 C6         -2.2682    2.6356   -6.0510 C.ar      1 <0>         0.0087
     12 C7         -1.2666    3.4648   -6.5209 C.ar      1 <0>        -0.1279
     13 C8          0.0473    3.0171   -6.5478 C.ar      1 <0>         0.2503
     14 C9          0.3520    1.7379   -6.0970 C.ar      1 <0>        -0.0977
     15 Br1         2.1411    1.1260   -6.1241 Br        1 <0>        -0.0139
     16 N3          1.0619    3.8524   -7.0224 N.pl3     1 <0>        -0.8576
     17 Cl1        -3.9117    3.1939   -6.0173 Cl        1 <0>        -0.0340
     18 C10         1.4131    0.0008    1.0215 C.3       1 <0>        -0.0846
     19 C11         0.7729   -0.9150    2.0667 C.3       1 <0>        -0.1527
     20 C12         1.0282    0.5578    2.3936 C.3       1 <0>        -0.1528
     21 H1          1.6580    2.1802   -0.4390 H         1 <0>         0.1266
     22 H2          0.0174    2.1549   -1.1290 H         1 <0>         0.1258
     23 H3          0.2412    2.3278    0.6284 H         1 <0>         0.1263
     24 H4          2.1077    0.1559   -1.5585 H         1 <0>         0.1400
     25 H5          1.1648   -1.3114   -1.2033 H         1 <0>         0.1437
     26 H6         -0.8142   -0.3075   -2.3098 H         1 <0>         0.1052
     27 H7          0.1287    1.1598   -2.6650 H         1 <0>         0.0886
     28 H8          1.6181   -0.8700   -3.7634 H         1 <0>         0.4287
     29 H9         -2.7462    0.7150   -5.2416 H         1 <0>         0.1615
     30 H10        -1.5061    4.4594   -6.8669 H         1 <0>         0.1539
     31 H11         0.8486    4.7460   -7.3336 H         1 <0>         0.4118
     32 H12         1.9795    3.5385   -7.0408 H         1 <0>         0.4091
     33 H13         2.4742   -0.1366    0.8138 H         1 <0>         0.1772
     34 H14        -0.2598   -1.2222    1.9017 H         1 <0>         0.1219
     35 H15         1.4129   -1.6553    2.5467 H         1 <0>         0.1347
     36 H16         1.8361    0.7863    3.0887 H         1 <0>         0.1342
     37 H17         0.1634    1.2194    2.4437 H         1 <0>         0.1203
     38 H18        -0.3637    0.1020    0.0230 H         1 <0>         0.4251
@<TRIPOS>BOND
     1    1    2 1
     2    1   21 1
     3    1   22 1
     4    1   23 1
     5    2    3 1
     6    2   18 1
     7    2   38 1
     8    3    4 1
     9    3   24 1
    10    3   25 1
    11    4    5 1
    12    4   26 1
    13    4   27 1
    14    5    6 1
    15    5   28 1
    16    6    7 2
    17    6    8 2
    18    6    9 1
    19    9   14 ar
    20    9   10 ar
    21   10   11 ar
    22   10   29 1
    23   11   12 ar
    24   11   17 1
    25   12   13 ar
    26   12   30 1
    27   13   14 ar
    28   13   16 1
    29   14   15 1
    30   16   31 1
    31   16   32 1
    32   18   20 1
    33   18   19 1
    34   18   33 1
    35   19   20 1
    36   19   34 1
    37   19   35 1
    38   20   36 1
    39   20   37 1
@<TRIPOS>MOLECULE
ZINC66543060
   60    62     0     0     0
SMALL
USER_CHARGES

@<TRIPOS>ATOM
      1 C1          1.5638    1.9976    1.3549 C.3       1 <0>        -0.1868
      2 C2          1.8647    0.4984    1.4058 C.3       1 <0>        -0.0199
      3 N1          0.6069   -0.2564    1.3268 N.4       1 <0>        -0.3814
      4 C3         -0.0186   -0.0299    0.0171 C.3       1 <0>        -0.0203
      5 C4         -1.3961   -0.6952   -0.0121 C.3       1 <0>        -0.1859
      6 C5          0.8842   -1.6891    1.4957 C.3       1 <0>         0.0176
      7 C6          1.4182   -1.9439    2.9080 C.3       1 <0>        -0.1355
      8 C7          1.7624   -3.4275    3.0580 C.3       1 <0>         0.0555
      9 N2          2.7720   -3.8005    2.0590 N.3       1 <0>        -0.5158
     10 C8          2.2646   -3.6090    0.6943 C.3       1 <0>         0.0450
     11 C9          1.9354   -2.1309    0.4738 C.3       1 <0>        -0.1336
     12 C10         3.2283   -5.1820    2.2621 C.3       1 <0>         0.0746
     13 H1          3.5025   -5.3241    3.3074 H         1 <0>         0.1237
     14 C11         2.1023   -6.1502    1.8941 C.3       1 <0>        -0.1934
     15 C12         4.4262   -5.4490    1.3876 C.2       1 <0>         0.5153
     16 O1          4.8574   -4.5745    0.6663 O.2       1 <0>        -0.4846
     17 N3          5.0184   -6.6595    1.4072 N.am      1 <0>        -0.6156
     18 C13         6.1207   -6.9052    0.6026 C.2       1 <0>         0.0253
     19 C14         6.8459   -8.0767    0.4886 C.2       1 <0>        -0.2143
     20 C15         7.9752   -8.0780   -0.4397 C.2       1 <0>        -0.0902
     21 C16         8.1641   -6.9075   -1.0752 C.2       1 <0>        -0.2434
     22 S1          6.8762   -5.8518   -0.4615 S.3       1 <0>         0.3181
     23 C17         9.3391   -6.9621   -2.0136 C.3       1 <0>        -0.0325
     24 C18        10.1373   -8.2074   -1.5676 C.3       1 <0>        -0.1163
     25 C19         9.0382   -9.0677   -0.9118 C.3       1 <0>        -0.0617
     26 C20         6.4969   -9.2690    1.2674 C.2       1 <0>         0.5819
     27 O2          5.7141  -10.0838    0.8149 O.2       1 <0>        -0.5328
     28 N4          7.0430   -9.4628    2.4842 N.am      1 <0>        -0.8472
     29 H2          0.9241    2.2686    2.1948 H         1 <0>         0.0792
     30 H3          2.4970    2.5577    1.4135 H         1 <0>         0.1061
     31 H4          1.0559    2.2347    0.4201 H         1 <0>         0.0796
     32 H5          2.5044    0.2275    0.5659 H         1 <0>         0.1322
     33 H6          2.3726    0.2613    2.3406 H         1 <0>         0.1327
     34 H7         -0.1288    1.0412   -0.1525 H         1 <0>         0.1332
     35 H8          0.6087   -0.4589   -0.7643 H         1 <0>         0.1305
     36 H9         -1.2777   -1.7778    0.0322 H         1 <0>         0.0781
     37 H10        -1.9805   -0.3583    0.8442 H         1 <0>         0.0792
     38 H11        -1.9115   -0.4234   -0.9333 H         1 <0>         0.1060
     39 H12        -0.0330   -2.2580    1.3440 H         1 <0>         0.1360
     40 H13         2.3134   -1.3442    3.0723 H         1 <0>         0.0980
     41 H14         0.6574   -1.6711    3.6394 H         1 <0>         0.0941
     42 H15         2.1563   -3.6096    4.0579 H         1 <0>         0.0995
     43 H16         0.8639   -4.0258    2.9073 H         1 <0>         0.0525
     44 H17         3.0233   -3.9230   -0.0226 H         1 <0>         0.1130
     45 H18         1.3638   -4.2065    0.5546 H         1 <0>         0.0484
     46 H19         1.5442   -1.9916   -0.5340 H         1 <0>         0.0913
     47 H20         2.8388   -1.5341    0.5997 H         1 <0>         0.1002
     48 H21         1.8280   -6.0081    0.8488 H         1 <0>         0.0718
     49 H22         2.4408   -7.1753    2.0447 H         1 <0>         0.0768
     50 H23         1.2358   -5.9571    2.5265 H         1 <0>         0.0786
     51 H24         4.6735   -7.3589    1.9841 H         1 <0>         0.4191
     52 H25         8.9987   -7.0774   -3.0426 H         1 <0>         0.0861
     53 H26         9.9484   -6.0639   -1.9123 H         1 <0>         0.0807
     54 H27        10.5731   -8.7191   -2.4257 H         1 <0>         0.0866
     55 H28        10.9065   -7.9389   -0.8435 H         1 <0>         0.0784
     56 H29         9.4454   -9.6174   -0.0631 H         1 <0>         0.0736
     57 H30         8.6140   -9.7579   -1.6409 H         1 <0>         0.0839
     58 H31         7.6668   -8.8134    2.8448 H         1 <0>         0.4037
     59 H32         6.8121  -10.2516    2.9994 H         1 <0>         0.4047
     60 H33        -0.0177    0.0535    2.0560 H         1 <0>         0.4208
@<TRIPOS>BOND
     1    1    2 1
     2    1   29 1
     3    1   30 1
     4    1   31 1
     5    2    3 1
     6    2   32 1
     7    2   33 1
     8    3    4 1
     9    3    6 1
    10    3   60 1
    11    4    5 1
    12    4   34 1
    13    4   35 1
    14    5   36 1
    15    5   37 1
    16    5   38 1
    17    6   11 1
    18    6    7 1
    19    6   39 1
    20    7    8 1
    21    7   40 1
    22    7   41 1
    23    8    9 1
    24    8   42 1
    25    8   43 1
    26    9   10 1
    27    9   12 1
    28   10   11 1
    29   10   44 1
    30   10   45 1
    31   11   46 1
    32   11   47 1
    33   12   13 1
    34   12   14 1
    35   12   15 1
    36   14   48 1
    37   14   49 1
    38   14   50 1
    39   15   16 2
    40   15   17 am
    41   17   18 1
    42   17   51 1
    43   18   22 1
    44   18   19 2
    45   19   20 1
    46   19   26 1
    47   20   25 1
    48   20   21 2
    49   21   22 1
    50   21   23 1
    51   23   24 1
    52   23   52 1
    53   23   53 1
    54   24   25 1
    55   24   54 1
    56   24   55 1
    57   25   56 1
    58   25   57 1
    59   26   27 2
    60   26   28 am
    61   28   58 1
    62   28   59 1
@<TRIPOS>MOLECULE
ZINC02157243
   61    65     0     0     0
SMALL
USER_CHARGES
1-(2,5-dimethoxyphenyl)-6-hydroxy-5-(methoxy-methyl-BLAHyl)-pyrimidine-2,4-dione
@<TRIPOS>ATOM
      1 C1         -0.0838   -7.2130    1.2170 C.3       1 <0>        -0.0393
      2 C2         -1.0614   -8.8275    2.7372 C.3       1 <0>         0.0011
      3 C3         -2.2284   -9.8090    2.8473 C.3       1 <0>        -0.1025
      4 C4         -3.5362   -9.0599    2.8162 C.ar      1 <0>        -0.0535
      5 C5         -4.6806   -9.7128    3.2495 C.ar      1 <0>        -0.1007
      6 C6         -5.9022   -9.0794    3.2278 C.ar      1 <0>         0.0780
      7 C7         -5.9878   -7.7662    2.7766 C.ar      1 <0>         0.0196
      8 C8         -4.8422   -7.1115    2.3482 C.ar      1 <0>         0.1487
      9 C9         -3.6119   -7.7616    2.3674 C.ar      1 <0>        -0.1229
     10 C10        -2.3967   -7.0069    1.8951 C.3       1 <0>         0.2022
     11 H1         -2.0748   -6.3176    2.6756 H         1 <0>         0.1539
     12 C11        -2.7463   -6.2263    0.6543 C.2       1 <0>        -0.3719
     13 C12        -3.1718   -6.8908   -0.5098 C.2       1 <0>         0.5851
     14 O1         -3.2622   -8.1062   -0.5241 O.2       1 <0>        -0.5220
     15 N1         -3.4795   -6.1746   -1.6093 N.am      1 <0>        -0.6553
     16 H2         -3.7787   -6.6444   -2.4398 H         1 <0>         0.4499
     17 C13        -3.3872   -4.8323   -1.5981 C.2       1 <0>         0.7118
     18 O2         -3.6737   -4.2038   -2.5987 O.2       1 <0>        -0.4901
     19 N2         -2.9774   -4.1755   -0.4974 N.am      1 <0>        -0.4861
     20 C14        -2.6541   -4.8663    0.6446 C.2       1 <0>         0.4935
     21 O3         -2.2487   -4.2038    1.7490 O.3       1 <0>        -0.4358
     22 C15        -2.8855   -2.7759   -0.5149 C.ar      1 <0>         0.0607
     23 C16        -1.6779   -2.1627   -0.8137 C.ar      1 <0>        -0.0926
     24 C17        -1.5900   -0.7795   -0.8307 C.ar      1 <0>         0.1102
     25 C18        -2.7074   -0.0088   -0.5439 C.ar      1 <0>        -0.1282
     26 C19        -3.9132   -0.6175   -0.2509 C.ar      1 <0>        -0.1559
     27 C20        -4.0066   -1.9997   -0.2326 C.ar      1 <0>         0.1293
     28 O4         -5.1926   -2.5980    0.0605 O.3       1 <0>        -0.3067
     29 C21        -6.3006   -1.7398    0.3398 C.3       1 <0>         0.0219
     30 O5         -0.4064   -0.1775   -1.1232 O.3       1 <0>        -0.3094
     31 C22        -0.3877    1.2514   -1.1227 C.3       1 <0>         0.0223
     32 O6         -4.9219   -5.8276    1.9067 O.3       1 <0>        -0.3196
     33 C23        -4.9105   -4.7987    2.8983 C.3       1 <0>         0.0315
     34 O7         -7.2901   -7.3612    2.8551 O.3       1 <0>        -0.2948
     35 C24        -8.0619   -8.5710    2.9738 C.3       1 <0>         0.2108
     36 O8         -7.1497   -9.4987    3.5905 O.3       1 <0>        -0.2973
     37 H3          0.2245   -6.5712    2.0423 H         1 <0>         0.1246
     38 H4          0.7094   -7.9273    0.9963 H         1 <0>         0.1269
     39 H5         -0.2787   -6.6026    0.3353 H         1 <0>         0.1136
     40 H6         -0.1334   -9.3780    2.5825 H         1 <0>         0.1413
     41 H7         -0.9922   -8.2369    3.6507 H         1 <0>         0.1345
     42 H8         -2.1925  -10.5089    2.0125 H         1 <0>         0.1108
     43 H9         -2.1498  -10.3610    3.7839 H         1 <0>         0.1283
     44 H10        -4.6155  -10.7323    3.6000 H         1 <0>         0.1508
     45 H11        -2.2166   -3.2433    1.6418 H         1 <0>         0.4242
     46 H12        -0.8069   -2.7624   -1.0334 H         1 <0>         0.1494
     47 H13        -2.6357    1.0688   -0.5532 H         1 <0>         0.1487
     48 H14        -4.7824   -0.0151   -0.0317 H         1 <0>         0.1509
     49 H15        -7.1819   -2.3434    0.5570 H         1 <0>         0.1091
     50 H16        -6.0674   -1.1142    1.2014 H         1 <0>         0.0631
     51 H17        -6.4976   -1.1074   -0.5258 H         1 <0>         0.0648
     52 H18         0.6142    1.6018   -1.3709 H         1 <0>         0.1101
     53 H19        -1.0965    1.6242   -1.8621 H         1 <0>         0.0618
     54 H20        -0.6666    1.6181   -0.1349 H         1 <0>         0.0612
     55 H21        -5.8254   -4.8527    3.4884 H         1 <0>         0.0554
     56 H22        -4.0483   -4.9331    3.5514 H         1 <0>         0.0518
     57 H23        -4.8493   -3.8255    2.4113 H         1 <0>         0.0938
     58 H24        -8.3661   -8.9293    1.9903 H         1 <0>         0.0946
     59 H25        -8.9334   -8.4113    3.6086 H         1 <0>         0.1429
     60 N3         -1.3146   -7.9523    1.5738 N.4       1 <0>        -0.3960
     61 H26        -1.6003   -8.5304    0.7748 H         1 <0>         0.4375
@<TRIPOS>BOND
     1    1   37 1
     2    1   38 1
     3    1   39 1
     4    1   60 1
     5    2    3 1
     6    2   40 1
     7    2   41 1
     8    2   60 1
     9    3    4 1
    10    3   42 1
    11    3   43 1
    12    4    9 ar
    13    4    5 ar
    14    5    6 ar
    15    5   44 1
    16    6   36 1
    17    6    7 ar
    18    7    8 ar
    19    7   34 1
    20    8    9 ar
    21    8   32 1
    22    9   10 1
    23   10   11 1
    24   10   12 1
    25   10   60 1
    26   12   20 2
    27   12   13 1
    28   13   14 2
    29   13   15 am
    30   15   16 1
    31   15   17 am
    32   17   18 2
    33   17   19 am
    34   19   20 1
    35   19   22 1
    36   20   21 1
    37   21   45 1
    38   22   27 ar
    39   22   23 ar
    40   23   24 ar
    41   23   46 1
    42   24   25 ar
    43   24   30 1
    44   25   26 ar
    45   25   47 1
    46   26   27 ar
    47   26   48 1
    48   27   28 1
    49   28   29 1
    50   29   49 1
    51   29   50 1
    52   29   51 1
    53   30   31 1
    54   31   52 1
    55   31   53 1
    56   31   54 1
    57   32   33 1
    58   33   55 1
    59   33   56 1
    60   33   57 1
    61   34   35 1
    62   35   36 1
    63   35   58 1
    64   35   59 1
    65   60   61 1
@<TRIPOS>MOLECULE
ZINC06195692
   73    77     0     0     0
SMALL
USER_CHARGES
3-[(S)-(1-tert-butyltetrazol-5-yl)-[4-(2,5-dimethylphenyl)piperazin-1-yl]methyl]-6-methoxy-1H-quinolin-2-one
@<TRIPOS>ATOM
      1 C1          6.9414    2.5470    6.9805 C.3       1 <0>        -0.1198
      2 C2          7.3503    2.7678    5.5470 C.ar      1 <0>        -0.0777
      3 C3          8.5978    3.2899    5.2571 C.ar      1 <0>        -0.1030
      4 C4          8.9770    3.4941    3.9432 C.ar      1 <0>        -0.1091
      5 C5          8.1124    3.1721    2.9153 C.ar      1 <0>        -0.0519
      6 C6          6.8570    2.6522    3.2030 C.ar      1 <0>         0.0637
      7 C7          6.4792    2.4483    4.5243 C.ar      1 <0>        -0.1426
      8 N1          5.9786    2.3296    2.1661 N.pl3     1 <0>        -0.4887
      9 C8          5.6331    0.9015    2.1936 C.3       1 <0>         0.0341
     10 C9          4.7351    0.5734    0.9985 C.3       1 <0>        -0.0032
     11 C10         3.8709    2.8342    1.0273 C.3       1 <0>        -0.0132
     12 C11         4.7689    3.1623    2.2224 C.3       1 <0>         0.0366
     13 C12         2.6016    1.0668   -0.0357 C.3       1 <0>         0.2056
     14 H1          2.2911    0.0265    0.0615 H         1 <0>         0.1653
     15 C13         1.3907    1.9612    0.0352 C.2       1 <0>        -0.2764
     16 C14         1.0885    2.7730   -1.0079 C.2       1 <0>         0.0822
     17 C15        -0.0914    3.6340   -0.9058 C.ar      1 <0>        -0.1099
     18 C16        -0.4483    4.4963   -1.9478 C.ar      1 <0>        -0.0835
     19 C17        -1.5666    5.2948   -1.8184 C.ar      1 <0>         0.1150
     20 C18        -2.3364    5.2444   -0.6584 C.ar      1 <0>        -0.1232
     21 C19        -2.0015    4.3913    0.3697 C.ar      1 <0>        -0.1171
     22 C20        -0.8752    3.5820    0.2620 C.ar      1 <0>         0.1594
     23 N2         -0.5133    2.7329    1.2881 N.am      1 <0>        -0.6080
     24 H2         -1.0519    2.7006    2.0941 H         1 <0>         0.4295
     25 C21         0.5752    1.9504    1.1869 C.2       1 <0>         0.5549
     26 O1          0.8652    1.2133    2.1134 O.2       1 <0>        -0.5547
     27 O2         -1.9185    6.1349   -2.8278 O.3       1 <0>        -0.3080
     28 C22        -3.0867    6.9337   -2.6296 C.3       1 <0>         0.0206
     29 C23         3.2939    1.2628   -1.3599 C.2       1 <0>         0.1188
     30 N3          3.9887    2.3099   -1.7323 N.2       1 <0>        -0.2763
     31 N4          4.4183    2.0976   -2.9283 N.2       1 <0>        -0.0491
     32 N5          4.0156    0.9421   -3.3284 N.2       1 <0>        -0.0450
     33 N6          3.3237    0.3939   -2.3875 N.pl3     1 <0>        -0.2640
     34 C24         2.6871   -0.9248   -2.4307 C.3       1 <0>         0.1506
     35 C25         1.1889   -0.7771   -2.1583 C.3       1 <0>        -0.1735
     36 C26         2.8953   -1.5465   -3.8131 C.3       1 <0>        -0.1558
     37 C27         3.3125   -1.8281   -1.3659 C.3       1 <0>        -0.1710
     38 C28         8.5288    3.3893    1.4833 C.3       1 <0>        -0.1095
     39 H3          7.2327    1.5436    7.2910 H         1 <0>         0.0743
     40 H4          7.4351    3.2818    7.6165 H         1 <0>         0.0722
     41 H5          5.8606    2.6559    7.0710 H         1 <0>         0.0656
     42 H6          9.2772    3.5390    6.0588 H         1 <0>         0.1289
     43 H7          9.9518    3.9019    3.7203 H         1 <0>         0.1318
     44 H8          5.5055    2.0400    4.7514 H         1 <0>         0.1170
     45 H9          5.1046    0.6730    3.1191 H         1 <0>         0.0678
     46 H10         6.5441    0.3055    2.1384 H         1 <0>         0.1271
     47 H11         4.4540   -0.4791    1.0329 H         1 <0>         0.1338
     48 H12         5.2734    0.7763    0.0726 H         1 <0>         0.1337
     49 H13         4.3994    3.0627    0.1018 H         1 <0>         0.1661
     50 H14         2.9598    3.4299    1.0827 H         1 <0>         0.1278
     51 H15         4.2306    2.9594    3.1483 H         1 <0>         0.0627
     52 H16         5.0501    4.2148    2.1880 H         1 <0>         0.1266
     53 H17         1.7071    2.7875   -1.8931 H         1 <0>         0.1484
     54 H18         0.1472    4.5368   -2.8479 H         1 <0>         0.1507
     55 H19        -3.2090    5.8743   -0.5679 H         1 <0>         0.1507
     56 H20        -2.6055    4.3603    1.2644 H         1 <0>         0.1493
     57 H21        -2.9484    7.5689   -1.7546 H         1 <0>         0.0620
     58 H22        -3.2542    7.5568   -3.5081 H         1 <0>         0.1110
     59 H23        -3.9486    6.2847   -2.4748 H         1 <0>         0.0617
     60 H24         0.7434   -0.1335   -2.9169 H         1 <0>         0.0809
     61 H25         0.7152   -1.7582   -2.1904 H         1 <0>         0.1084
     62 H26         1.0406   -0.3341   -1.1734 H         1 <0>         0.0642
     63 H27         3.9627   -1.6518   -4.0072 H         1 <0>         0.0820
     64 H28         2.4216   -2.5277   -3.8453 H         1 <0>         0.0962
     65 H29         2.4498   -0.9030   -4.5717 H         1 <0>         0.0804
     66 H30         3.0760   -1.4396   -0.3753 H         1 <0>         0.0584
     67 H31         2.9128   -2.8374   -1.4653 H         1 <0>         0.1108
     68 H32         4.3941   -1.8510   -1.4984 H         1 <0>         0.0821
     69 H33         8.2424    4.3931    1.1698 H         1 <0>         0.0716
     70 H34         9.6096    3.2766    1.3982 H         1 <0>         0.0651
     71 H35         8.0357    2.6551    0.8462 H         1 <0>         0.0740
     72 N7          3.5132    1.4009    1.0794 N.4       1 <0>        -0.3868
     73 H36         3.0374    1.2077    1.9685 H         1 <0>         0.4415
@<TRIPOS>BOND
     1    1    2 1
     2    1   39 1
     3    1   40 1
     4    1   41 1
     5    2    7 ar
     6    2    3 ar
     7    3    4 ar
     8    3   42 1
     9    4    5 ar
    10    4   43 1
    11    5    6 ar
    12    5   38 1
    13    6    7 ar
    14    6    8 1
    15    7   44 1
    16    8   12 1
    17    8    9 1
    18    9   10 1
    19    9   45 1
    20    9   46 1
    21   10   47 1
    22   10   48 1
    23   10   72 1
    24   11   12 1
    25   11   49 1
    26   11   50 1
    27   11   72 1
    28   12   51 1
    29   12   52 1
    30   13   14 1
    31   13   15 1
    32   13   29 1
    33   13   72 1
    34   15   25 1
    35   15   16 2
    36   16   17 1
    37   16   53 1
    38   17   22 ar
    39   17   18 ar
    40   18   19 ar
    41   18   54 1
    42   19   20 ar
    43   19   27 1
    44   20   21 ar
    45   20   55 1
    46   21   22 ar
    47   21   56 1
    48   22   23 1
    49   23   24 1
    50   23   25 am
    51   25   26 2
    52   27   28 1
    53   28   57 1
    54   28   58 1
    55   28   59 1
    56   29   33 1
    57   29   30 2
    58   30   31 1
    59   31   32 2
    60   32   33 1
    61   33   34 1
    62   34   35 1
    63   34   36 1
    64   34   37 1
    65   35   60 1
    66   35   61 1
    67   35   62 1
    68   36   63 1
    69   36   64 1
    70   36   65 1
    71   37   66 1
    72   37   67 1
    73   37   68 1
    74   38   69 1
    75   38   70 1
    76   38   71 1
    77   72   73 1
@<TRIPOS>MOLECULE
ZINC09012130
   60    65     0     0     0
SMALL
USER_CHARGES
(3aR,4S,6S,6aR)-4-benzyl-2-(2-methoxy-5-nitro-phenyl)spiro[3a,4,5,6a-tetrahydropyrrolo[3,4-c]pyrrole-6,3'-indoline]-1,2',3-trione
@<TRIPOS>ATOM
      1 C1         -2.2988   -0.3679    0.0119 C.3       1 <0>         0.0152
      2 O1         -2.3910    1.0581    0.0196 O.3       1 <0>        -0.3008
      3 C2         -1.2221    1.7523    0.0173 C.ar      1 <0>         0.2051
      4 C3         -0.0126    1.0758    0.0080 C.ar      1 <0>        -0.1970
      5 C4          1.1750    1.7830    0.0004 C.ar      1 <0>         0.0130
      6 C5          1.1605    3.1658    0.0075 C.ar      1 <0>        -0.0735
      7 C6         -0.0414    3.8476    0.0222 C.ar      1 <0>         0.0066
      8 C7         -1.2371    3.1447    0.0298 C.ar      1 <0>         0.0645
      9 N1         -2.4589    3.8351    0.0447 N.am      1 <0>        -0.5382
     10 C8         -3.1354    4.2165   -1.0931 C.2       1 <0>         0.5890
     11 O2         -2.9730    3.8190   -2.2268 O.2       1 <0>        -0.4045
     12 C9         -4.0802    5.1967   -0.6239 C.3       1 <0>        -0.1825
     13 H1         -3.4164    6.0018   -0.3089 H         1 <0>         0.1184
     14 C10        -5.2814    5.9473   -1.0204 C.3       1 <0>         0.0929
     15 H2         -6.1031    5.2759   -1.2693 H         1 <0>         0.1725
     16 C11        -5.1959    5.7861    1.3714 C.3       1 <0>         0.1043
     17 C12        -4.5046    4.5778    0.7674 C.3       1 <0>        -0.1213
     18 H3         -5.1690    3.7183    0.6786 H         1 <0>         0.1785
     19 C13        -3.1114    4.1979    1.1901 C.2       1 <0>         0.5525
     20 O3         -2.6603    4.2128    2.3153 O.2       1 <0>        -0.4034
     21 C14        -4.3346    6.5018    2.3757 C.ar      1 <0>        -0.2080
     22 C15        -3.1034    7.1147    2.3037 C.ar      1 <0>        -0.0444
     23 C16        -2.5521    7.7010    3.4287 C.ar      1 <0>        -0.1150
     24 C17        -3.2432    7.6750    4.6265 C.ar      1 <0>        -0.0408
     25 C18        -4.4806    7.0706    4.7026 C.ar      1 <0>        -0.1186
     26 C19        -5.0427    6.4792    3.5734 C.ar      1 <0>         0.1727
     27 N2         -6.2625    5.8224    3.4009 N.am      1 <0>        -0.6364
     28 C20        -6.4327    5.3898    2.1381 C.2       1 <0>         0.5306
     29 O4         -7.3951    4.7950    1.7009 O.2       1 <0>        -0.4399
     30 C21        -4.9818    6.9039   -2.1763 C.3       1 <0>        -0.0884
     31 C22        -6.2606    7.5596   -2.6300 C.ar      1 <0>        -0.1267
     32 C23        -7.0225    6.9743   -3.6239 C.ar      1 <0>        -0.1004
     33 C24        -8.1976    7.5737   -4.0373 C.ar      1 <0>        -0.1069
     34 C25        -8.6062    8.7628   -3.4630 C.ar      1 <0>        -0.1011
     35 C26        -7.8418    9.3505   -2.4725 C.ar      1 <0>        -0.1098
     36 C27        -6.6688    8.7492   -2.0563 C.ar      1 <0>        -0.1311
     37 N3          2.4356    3.9175   -0.0011 N.pl3     1 <0>         0.0302
     38 O5          3.4959    3.3181   -0.0144 O.2       1 <0>        -0.1417
     39 O6          2.4246    5.1355    0.0051 O.3       1 <0>        -0.1558
     40 H4         -3.3009   -0.7968    0.0146 H         1 <0>         0.1164
     41 H5         -1.7670   -0.6928   -0.8824 H         1 <0>         0.0724
     42 H6         -1.7582   -0.7018    0.8975 H         1 <0>         0.0710
     43 H7          0.0021   -0.0041    0.0020 H         1 <0>         0.1678
     44 H8          2.1166    1.2543   -0.0107 H         1 <0>         0.1711
     45 H9         -0.0497    4.9275    0.0274 H         1 <0>         0.1643
     46 H10        -2.5672    7.1379    1.3665 H         1 <0>         0.1290
     47 H11        -1.5845    8.1774    3.3720 H         1 <0>         0.1491
     48 H12        -2.8121    8.1302    5.5059 H         1 <0>         0.1511
     49 H13        -5.0154    7.0555    5.6407 H         1 <0>         0.1461
     50 H14        -6.9121    5.6926    4.1095 H         1 <0>         0.4390
     51 H15        -4.2800    7.6683   -1.8427 H         1 <0>         0.1026
     52 H16        -4.5452    6.3467   -3.0052 H         1 <0>         0.1351
     53 H17        -6.7014    6.0472   -4.0752 H         1 <0>         0.1314
     54 H18        -8.7946    7.1147   -4.8115 H         1 <0>         0.1326
     55 H19        -9.5225    9.2328   -3.7884 H         1 <0>         0.1315
     56 H20        -8.1609   10.2798   -2.0240 H         1 <0>         0.1307
     57 H21        -6.0714    9.2085   -1.2827 H         1 <0>         0.1188
     58 N4         -5.5495    6.6819    0.2567 N.4       1 <0>        -0.5089
     59 H22        -6.5430    6.9347    0.3127 H         1 <0>         0.4475
     60 H23        -4.9769    7.5333    0.2970 H         1 <0>         0.4415
@<TRIPOS>BOND
     1    1    2 1
     2    1   40 1
     3    1   41 1
     4    1   42 1
     5    2    3 1
     6    3    8 ar
     7    3    4 ar
     8    4    5 ar
     9    4   43 1
    10    5    6 ar
    11    5   44 1
    12    6    7 ar
    13    6   37 1
    14    7    8 ar
    15    7   45 1
    16    8    9 1
    17    9   19 am
    18    9   10 am
    19   10   11 2
    20   10   12 1
    21   12   13 1
    22   12   17 1
    23   12   14 1
    24   14   15 1
    25   14   30 1
    26   14   58 1
    27   16   28 1
    28   16   17 1
    29   16   21 1
    30   16   58 1
    31   17   18 1
    32   17   19 1
    33   19   20 2
    34   21   26 ar
    35   21   22 ar
    36   22   23 ar
    37   22   46 1
    38   23   24 ar
    39   23   47 1
    40   24   25 ar
    41   24   48 1
    42   25   26 ar
    43   25   49 1
    44   26   27 1
    45   27   28 am
    46   27   50 1
    47   28   29 2
    48   30   31 1
    49   30   51 1
    50   30   52 1
    51   31   36 ar
    52   31   32 ar
    53   32   33 ar
    54   32   53 1
    55   33   34 ar
    56   33   54 1
    57   34   35 ar
    58   34   55 1
    59   35   36 ar
    60   35   56 1
    61   36   57 1
    62   37   38 2
    63   37   39 1
    64   58   59 1
    65   58   60 1
@<TRIPOS>MOLECULE
ZINC33276528
   69    73     0     0     0
SMALL
USER_CHARGES
3-[3-(4-cyclohexylpiperazin-1-yl)sulfonyl-4-methyl-phenyl]-2-methyl-6,7-dihydro-4H-pyrazolo[1,5-a][1,3]diazepine-5,8-dione
@<TRIPOS>ATOM
      1 C1         -0.1007   -5.2775    0.9735 C.3       1 <0>        -0.1841
      2 C2          1.2726   -5.0150    0.4113 C.ar      1 <0>         0.0139
      3 C3          1.4223   -4.1763   -0.6788 C.ar      1 <0>        -0.1278
      4 C4          2.6773   -3.9319   -1.1975 C.ar      1 <0>        -0.0527
      5 C5          3.7958   -4.5320   -0.6209 C.ar      1 <0>        -0.0160
      6 C6          3.6385   -5.3802    0.4737 C.ar      1 <0>        -0.0022
      7 C7          2.3787   -5.6131    0.9874 C.ar      1 <0>        -0.6797
      8 S1          2.1785   -6.6798    2.3754 S.o2      1 <0>         2.6880
      9 O1          3.4812   -7.1034    2.7534 O.2       1 <0>        -0.9353
     10 O2          1.3025   -6.0151    3.2754 O.2       1 <0>        -0.9325
     11 N1          1.3776   -8.0287    1.8448 N.pl3     1 <0>        -1.0107
     12 C8         -0.0833   -8.1392    1.9749 C.3       1 <0>         0.0816
     13 C9         -0.6617   -8.5227    0.6036 C.3       1 <0>        -0.0378
     14 N2          0.0113   -9.7338    0.1154 N.4       1 <0>        -0.3948
     15 C10         1.4449   -9.4966   -0.1004 C.3       1 <0>        -0.0220
     16 C11         2.1089   -9.1504    1.2365 C.3       1 <0>         0.0965
     17 C12        -0.6293  -10.2353   -1.1077 C.3       1 <0>         0.0331
     18 C13        -0.5751   -9.1563   -2.1911 C.3       1 <0>        -0.1405
     19 C14        -1.2423   -9.6787   -3.4650 C.3       1 <0>        -0.1187
     20 C15        -2.7014  -10.0311   -3.1688 C.3       1 <0>        -0.1318
     21 C16        -2.7556  -11.1101   -2.0854 C.3       1 <0>        -0.1185
     22 C17        -2.0884  -10.5878   -0.8115 C.3       1 <0>        -0.1407
     23 C18         5.1473   -4.2737   -1.1741 C.2       1 <0>        -0.2168
     24 C19         6.2024   -3.6114   -0.5192 C.2       1 <0>         0.1413
     25 N3          7.2326   -3.5939   -1.3140 N.2       1 <0>        -0.2482
     26 N4          6.9106   -4.2776   -2.5026 N.am      1 <0>        -0.3728
     27 C20         5.6040   -4.6408   -2.4354 C.2       1 <0>         0.3563
     28 N5          4.7843   -5.1965   -3.3965 N.am      1 <0>        -0.6593
     29 C21         5.1873   -6.0638   -4.3483 C.2       1 <0>         0.5280
     30 O3          4.3925   -6.4863   -5.1612 O.2       1 <0>        -0.4957
     31 C22         6.6131   -6.5027   -4.3986 C.3       1 <0>        -0.1533
     32 C23         7.5437   -5.3466   -4.6546 C.3       1 <0>        -0.1421
     33 C24         7.8185   -4.5066   -3.4748 C.2       1 <0>         0.5375
     34 O4          8.9082   -3.9941   -3.3757 O.2       1 <0>        -0.4351
     35 C25         6.1482   -3.0223    0.8668 C.3       1 <0>        -0.0917
     36 H1         -0.8484   -4.7204    0.3899 H         1 <0>         0.0923
     37 H2         -0.1361   -4.9497    2.0229 H         1 <0>         0.1159
     38 H3         -0.3200   -6.3540    0.9180 H         1 <0>         0.0727
     39 H4          0.5551   -3.7116   -1.1244 H         1 <0>         0.1393
     40 H5          2.7930   -3.2773   -2.0486 H         1 <0>         0.1351
     41 H6          4.5010   -5.8510    0.9218 H         1 <0>         0.1472
     42 H7         -0.3278   -8.9131    2.7174 H         1 <0>         0.1098
     43 H8         -0.4964   -7.1736    2.3021 H         1 <0>         0.1459
     44 H9         -1.7404   -8.7144    0.7013 H         1 <0>         0.1502
     45 H10        -0.4986   -7.6987   -0.1066 H         1 <0>         0.1367
     46 H11         1.9079  -10.4032   -0.5172 H         1 <0>         0.1464
     47 H12         1.5765   -8.6612   -0.8038 H         1 <0>         0.1320
     48 H13         3.1564   -8.8583    1.0707 H         1 <0>         0.1339
     49 H14         2.0728  -10.0197    1.9096 H         1 <0>         0.1082
     50 H15        -0.0728  -11.1295   -1.4251 H         1 <0>         0.1376
     51 H16        -1.1055   -8.2584   -1.8412 H         1 <0>         0.0856
     52 H17         0.4739   -8.9029   -2.4041 H         1 <0>         0.0841
     53 H18        -1.2033   -8.9030   -4.2439 H         1 <0>         0.0839
     54 H19        -0.7120  -10.5766   -3.8149 H         1 <0>         0.0747
     55 H20        -3.2317   -9.1331   -2.8189 H         1 <0>         0.0695
     56 H21        -3.1811  -10.4066   -4.0847 H         1 <0>         0.0799
     57 H22        -3.8046  -11.3635   -1.8724 H         1 <0>         0.0857
     58 H23        -2.2253  -12.0081   -2.4353 H         1 <0>         0.0752
     59 H24        -2.1273  -11.3636   -0.0326 H         1 <0>         0.0891
     60 H25        -2.6188   -9.6899   -0.4615 H         1 <0>         0.0877
     61 H26         3.7152   -4.9390   -3.4233 H         1 <0>         0.4473
     62 H27         6.8891   -6.9629   -3.4384 H         1 <0>         0.1057
     63 H28         6.7425   -7.2367   -5.2076 H         1 <0>         0.1351
     64 H29         8.5134   -5.7277   -5.0073 H         1 <0>         0.1435
     65 H30         7.1081   -4.6879   -5.4203 H         1 <0>         0.1215
     66 H31         7.1205   -2.5696    1.1111 H         1 <0>         0.0896
     67 H32         5.9201   -3.8157    1.5938 H         1 <0>         0.0898
     68 H33         5.3644   -2.2516    0.9072 H         1 <0>         0.0905
     69 H34        -0.0867  -10.5069    0.8917 H         1 <0>         0.4428
@<TRIPOS>BOND
     1    1    2 1
     2    1   36 1
     3    1   37 1
     4    1   38 1
     5    2    7 ar
     6    2    3 ar
     7    3    4 ar
     8    3   39 1
     9    4    5 ar
    10    4   40 1
    11    5    6 ar
    12    5   23 1
    13    6    7 ar
    14    6   41 1
    15    7    8 1
    16    8    9 2
    17    8   10 2
    18    8   11 1
    19   11   16 1
    20   11   12 1
    21   12   13 1
    22   12   42 1
    23   12   43 1
    24   13   14 1
    25   13   44 1
    26   13   45 1
    27   14   15 1
    28   14   17 1
    29   14   69 1
    30   15   16 1
    31   15   46 1
    32   15   47 1
    33   16   48 1
    34   16   49 1
    35   17   22 1
    36   17   18 1
    37   17   50 1
    38   18   19 1
    39   18   51 1
    40   18   52 1
    41   19   20 1
    42   19   53 1
    43   19   54 1
    44   20   21 1
    45   20   55 1
    46   20   56 1
    47   21   22 1
    48   21   57 1
    49   21   58 1
    50   22   59 1
    51   22   60 1
    52   23   27 2
    53   23   24 1
    54   24   25 2
    55   24   35 1
    56   25   26 1
    57   26   33 am
    58   26   27 1
    59   27   28 1
    60   28   29 am
    61   28   61 1
    62   29   30 2
    63   29   31 1
    64   31   32 1
    65   31   62 1
    66   31   63 1
    67   32   33 1
    68   32   64 1
    69   32   65 1
    70   33   34 2
    71   35   66 1
    72   35   67 1
    73   35   68 1
@<TRIPOS>MOLECULE
ZINC39710593
   67    71     0     0     0
SMALL
USER_CHARGES

@<TRIPOS>ATOM
      1 C1         -4.6342   -7.1427   -3.0339 C.3       1 <0>        -0.1590
      2 C2         -3.6833   -6.8979   -1.8908 C.ar      1 <0>         0.1376
      3 C3         -3.7783   -7.7045   -0.7564 C.ar      1 <0>        -0.1752
      4 C4         -2.9494   -7.5321    0.3055 C.ar      1 <0>         0.0430
      5 C5         -1.9388   -6.4753    0.2474 C.ar      1 <0>        -0.1941
      6 C6         -1.0849   -6.2660    1.2893 C.2       1 <0>         0.1752
      7 C7         -0.0697   -5.1495    1.1424 C.3       1 <0>        -0.1377
      8 H1         -0.2201   -4.4504    1.9650 H         1 <0>         0.1897
      9 C8         -0.0868   -4.3596   -0.1468 C.2       1 <0>         0.5170
     10 O1          0.7060   -3.4530   -0.3180 O.2       1 <0>        -0.4314
     11 N1         -0.9668   -4.6585   -1.0877 N.am      1 <0>        -0.6026
     12 C9         -1.8610   -5.6391   -0.9629 C.ar      1 <0>         0.3456
     13 C10        -2.7643   -5.9041   -2.0085 C.ar      1 <0>        -0.2365
     14 C11         1.3247   -5.7593    1.2999 C.3       1 <0>         0.1841
     15 H2          2.0769   -4.9771    1.1980 H         1 <0>         0.1058
     16 C12         1.5392   -6.8042    0.2354 C.2       1 <0>         0.1399
     17 N2          1.0165   -8.0057    0.2016 N.2       1 <0>        -0.2655
     18 N3          1.4386   -8.5934   -0.8644 N.2       1 <0>        -0.0580
     19 N4          2.2169   -7.7980   -1.5116 N.2       1 <0>        -0.0632
     20 N5          2.3000   -6.6827   -0.8683 N.pl3     1 <0>        -0.2904
     21 C13         3.0789   -5.5064   -1.2630 C.3       1 <0>         0.0983
     22 C14         4.4870   -5.6055   -0.6727 C.3       1 <0>         0.0499
     23 O2          5.2468   -4.4582   -1.0578 O.3       1 <0>        -0.3800
     24 C15         6.5847   -4.4518   -0.5558 C.3       1 <0>         0.0309
     25 N6          1.4406   -6.3804    2.6261 N.3       1 <0>        -0.5173
     26 C16         1.3285   -5.3740    3.6903 C.3       1 <0>         0.0249
     27 C17         1.2722   -6.0777    5.0504 C.3       1 <0>         0.1523
     28 N7          2.4334   -6.9735    5.1614 N.pl3     1 <0>        -0.6727
     29 C18         2.6905   -7.9188    4.0642 C.3       1 <0>         0.1535
     30 C19         2.6910   -7.1425    2.7430 C.3       1 <0>         0.0389
     31 C20         3.2702   -6.9274    6.2788 C.ar      1 <0>         0.1729
     32 C21         3.0043   -7.7301    7.3809 C.ar      1 <0>        -0.1102
     33 C22         3.8343   -7.6819    8.4848 C.ar      1 <0>        -0.0328
     34 C23         4.9292   -6.8349    8.4923 C.ar      1 <0>        -0.1050
     35 C24         5.1957   -6.0352    7.3966 C.ar      1 <0>        -0.1013
     36 C25         4.3730   -6.0831    6.2880 C.ar      1 <0>        -0.0892
     37 C26         4.6687   -5.2157    5.0916 C.3       1 <0>        -0.1098
     38 Cl1         3.5033   -8.6839    9.8632 Cl        1 <0>        -0.0625
     39 H3         -4.1971   -7.8668   -3.7214 H         1 <0>         0.1149
     40 H4         -5.5756   -7.5321   -2.6464 H         1 <0>         0.1009
     41 H5         -4.8177   -6.2063   -3.5608 H         1 <0>         0.0959
     42 H6         -4.5269   -8.4821   -0.7219 H         1 <0>         0.1667
     43 H7         -3.0347   -8.1636    1.1775 H         1 <0>         0.1784
     44 H8         -1.1300   -6.8705    2.1831 H         1 <0>         0.2093
     45 H9         -2.7296   -5.3104   -2.9101 H         1 <0>         0.1678
     46 H10         3.1431   -5.4612   -2.3502 H         1 <0>         0.1330
     47 H11         2.5912   -4.6058   -0.8901 H         1 <0>         0.1230
     48 H12         4.4228   -5.6507    0.4145 H         1 <0>         0.0561
     49 H13         4.9747   -6.5062   -1.0456 H         1 <0>         0.0709
     50 H14         6.5641   -4.4730    0.5338 H         1 <0>         0.0476
     51 H15         7.1160   -5.3285   -0.9263 H         1 <0>         0.0509
     52 H16         7.0946   -3.5490   -0.8920 H         1 <0>         0.1008
     53 H17         2.1946   -4.7129    3.6584 H         1 <0>         0.0583
     54 H18         0.4194   -4.7904    3.5448 H         1 <0>         0.0858
     55 H19         1.3046   -5.3357    5.8482 H         1 <0>         0.0843
     56 H20         0.3530   -6.6589    5.1241 H         1 <0>         0.0665
     57 H21         3.6605   -8.3940    4.2101 H         1 <0>         0.0808
     58 H22         1.9076   -8.6769    4.0432 H         1 <0>         0.0693
     59 H23         2.7700   -7.8416    1.9104 H         1 <0>         0.0810
     60 H24         3.5380   -6.4568    2.7243 H         1 <0>         0.0495
     61 H25         2.1499   -8.3907    7.3752 H         1 <0>         0.1341
     62 H26         5.5764   -6.7985    9.3562 H         1 <0>         0.1362
     63 H27         6.0507   -5.3755    7.4057 H         1 <0>         0.1337
     64 H28         4.1626   -4.2569    5.2041 H         1 <0>         0.0687
     65 H29         5.7439   -5.0526    5.0179 H         1 <0>         0.0660
     66 H30         4.3133   -5.7102    4.1876 H         1 <0>         0.0649
     67 H31        -0.9612   -4.1397   -1.9073 H         1 <0>         0.4393
@<TRIPOS>BOND
     1    1    2 1
     2    1   39 1
     3    1   40 1
     4    1   41 1
     5    2   13 ar
     6    2    3 ar
     7    3    4 ar
     8    3   42 1
     9    4    5 ar
    10    4   43 1
    11    5   12 ar
    12    5    6 2
    13    6    7 1
    14    6   44 1
    15    7    8 1
    16    7    9 1
    17    7   14 1
    18    9   10 2
    19    9   11 am
    20   11   12 2
    21   11   67 1
    22   12   13 ar
    23   13   45 1
    24   14   15 1
    25   14   16 1
    26   14   25 1
    27   16   20 1
    28   16   17 2
    29   17   18 1
    30   18   19 2
    31   19   20 1
    32   20   21 1
    33   21   22 1
    34   21   46 1
    35   21   47 1
    36   22   23 1
    37   22   48 1
    38   22   49 1
    39   23   24 1
    40   24   50 1
    41   24   51 1
    42   24   52 1
    43   25   30 1
    44   25   26 1
    45   26   27 1
    46   26   53 1
    47   26   54 1
    48   27   28 1
    49   27   55 1
    50   27   56 1
    51   28   29 1
    52   28   31 1
    53   29   30 1
    54   29   57 1
    55   29   58 1
    56   30   59 1
    57   30   60 1
    58   31   36 ar
    59   31   32 ar
    60   32   33 ar
    61   32   61 1
    62   33   34 ar
    63   33   38 1
    64   34   35 ar
    65   34   62 1
    66   35   36 ar
    67   35   63 1
    68   36   37 1
    69   37   64 1
    70   37   65 1
    71   37   66 1
@<TRIPOS>MOLECULE
ZINC08767599
   63    69     0     0     0
SMALL
USER_CHARGES
(4-methoxybenzoyl)-(2-naphthyl)BLAHdione
@<TRIPOS>ATOM
      1 C1         -5.5523   10.8517   -4.0337 C.3       1 <0>         0.0196
      2 O1         -5.8750   10.1644   -2.8231 O.3       1 <0>        -0.3028
      3 C2         -4.8966   10.0718   -1.8879 C.ar      1 <0>         0.1892
      4 C3         -5.1455    9.4156   -0.6872 C.ar      1 <0>        -0.1628
      5 C4         -4.1600    9.3191    0.2613 C.ar      1 <0>         0.0080
      6 C5         -2.9013    9.8832    0.0195 C.ar      1 <0>        -0.2129
      7 C6         -2.6578   10.5483   -1.1886 C.ar      1 <0>        -0.0309
      8 C7         -3.6482   10.6337   -2.1330 C.ar      1 <0>        -0.2199
      9 C8         -1.8421    9.7828    1.0318 C.2       1 <0>         0.3982
     10 O2         -2.0568    9.2106    2.0795 O.2       1 <0>        -0.4349
     11 C9         -0.4885   10.3908    0.7689 C.3       1 <0>         0.0309
     12 H1         -0.6006   11.3418    0.4807 H         1 <0>         0.1826
     13 C10         0.2897    9.5172   -0.2244 C.3       1 <0>        -0.1368
     14 H2          0.2054    9.8579   -1.2563 H         1 <0>         0.1944
     15 C11         1.7551    9.5398    0.3093 C.3       1 <0>        -0.1198
     16 H3          2.3996   10.2616   -0.1924 H         1 <0>         0.1831
     17 C12         1.5882    9.8014    1.8115 C.3       1 <0>         0.0893
     18 H4          1.6275    8.8604    2.3602 H         1 <0>         0.1255
     19 C13        -0.0794   11.0523    3.2064 C.2       1 <0>        -0.0789
     20 C14         0.9124   11.6563    3.8904 C.2       1 <0>         0.0043
     21 C15         2.2807   11.6587    3.3345 C.ar      1 <0>        -0.0995
     22 C16         2.6466   10.7416    2.3255 C.ar      1 <0>        -0.0834
     23 C17         3.9103   10.7571    1.8102 C.ar      1 <0>        -0.0903
     24 C18         4.8508   11.6510    2.2952 C.ar      1 <0>        -0.0771
     25 C19         4.5112   12.5473    3.2929 C.ar      1 <0>        -0.0985
     26 C20         3.2340   12.5573    3.8153 C.ar      1 <0>        -0.0653
     27 C21         2.1636    8.0872    0.1247 C.2       1 <0>         0.5283
     28 O3          3.3013    7.6718    0.0709 O.2       1 <0>        -0.4112
     29 N1          1.0503    7.3439    0.0289 N.am      1 <0>        -0.5202
     30 C22        -0.0827    8.0601   -0.0546 C.2       1 <0>         0.5038
     31 O4         -1.2095    7.6160   -0.0029 O.2       1 <0>        -0.4063
     32 C23         1.0681    5.9425    0.0225 C.ar      1 <0>         0.0920
     33 C24         1.4620    5.2513    1.1738 C.ar      1 <0>        -0.1135
     34 C25         1.4901    3.8923    1.1976 C.ar      1 <0>        -0.0765
     35 C26         1.1186    3.1666    0.0519 C.ar      1 <0>        -0.0405
     36 C27         1.1367    1.7616    0.0423 C.ar      1 <0>        -0.1066
     37 C28         0.7713    1.0907   -1.0842 C.ar      1 <0>        -0.0993
     38 C29         0.3837    1.7764   -2.2341 C.ar      1 <0>        -0.1037
     39 C30         0.3483    3.1366   -2.2601 C.ar      1 <0>        -0.1032
     40 C31         0.7188    3.8641   -1.1156 C.ar      1 <0>        -0.0462
     41 C32         0.7009    5.2683   -1.1082 C.ar      1 <0>        -0.0670
     42 H5         -6.4204   10.8534   -4.6929 H         1 <0>         0.1115
     43 H6         -5.2686   11.8787   -3.8039 H         1 <0>         0.0639
     44 H7         -4.7219   10.3471   -4.5276 H         1 <0>         0.0632
     45 H8         -6.1166    8.9809   -0.5017 H         1 <0>         0.1473
     46 H9         -4.3541    8.8087    1.1931 H         1 <0>         0.1456
     47 H10        -1.6903   10.9892   -1.3779 H         1 <0>         0.1293
     48 H11        -3.4600   11.1422   -3.0671 H         1 <0>         0.1436
     49 H12        -1.0964   11.0403    3.5697 H         1 <0>         0.2004
     50 H13         0.7083   12.1349    4.8368 H         1 <0>         0.1878
     51 H14         4.1798   10.0592    1.0312 H         1 <0>         0.1443
     52 H15         5.8532   11.6480    1.8933 H         1 <0>         0.1462
     53 H16         5.2494   13.2423    3.6649 H         1 <0>         0.1448
     54 H17         2.9729   13.2589    4.5937 H         1 <0>         0.1456
     55 H18         1.7480    5.8053    2.0556 H         1 <0>         0.1231
     56 H19         1.7969    3.3720    2.0929 H         1 <0>         0.1419
     57 H20         1.4393    1.2167    0.9243 H         1 <0>         0.1353
     58 H21         0.7863    0.0108   -1.0885 H         1 <0>         0.1324
     59 H22         0.1032    1.2199   -3.1161 H         1 <0>         0.1321
     60 H23         0.0416    3.6545   -3.1568 H         1 <0>         0.1318
     61 H24         0.3983    5.8123   -1.9907 H         1 <0>         0.1323
     62 N2          0.1988   10.1020    2.0559 N.4       1 <0>        -0.3745
     63 H25        -0.2050    9.2124    2.3718 H         1 <0>         0.4309
@<TRIPOS>BOND
     1    1    2 1
     2    1   42 1
     3    1   43 1
     4    1   44 1
     5    2    3 1
     6    3    8 ar
     7    3    4 ar
     8    4    5 ar
     9    4   45 1
    10    5    6 ar
    11    5   46 1
    12    6    7 ar
    13    6    9 1
    14    7    8 ar
    15    7   47 1
    16    8   48 1
    17    9   10 2
    18    9   11 1
    19   11   12 1
    20   11   13 1
    21   11   62 1
    22   13   14 1
    23   13   30 1
    24   13   15 1
    25   15   16 1
    26   15   17 1
    27   15   27 1
    28   17   18 1
    29   17   22 1
    30   17   62 1
    31   19   20 2
    32   19   49 1
    33   19   62 1
    34   20   21 1
    35   20   50 1
    36   21   26 ar
    37   21   22 ar
    38   22   23 ar
    39   23   24 ar
    40   23   51 1
    41   24   25 ar
    42   24   52 1
    43   25   26 ar
    44   25   53 1
    45   26   54 1
    46   27   28 2
    47   27   29 am
    48   29   30 am
    49   29   32 1
    50   30   31 2
    51   32   41 ar
    52   32   33 ar
    53   33   34 ar
    54   33   55 1
    55   34   35 ar
    56   34   56 1
    57   35   40 ar
    58   35   36 ar
    59   36   37 ar
    60   36   57 1
    61   37   38 ar
    62   37   58 1
    63   38   39 ar
    64   38   59 1
    65   39   40 ar
    66   39   60 1
    67   40   41 ar
    68   41   61 1
    69   62   63 1
@<TRIPOS>MOLECULE
ZINC03111067
   52    55     0     0     0
SMALL
USER_CHARGES
[8-[3-chloro-5-(trifluoromethyl)-2-pyridyl]-1-oxa-4,8-diazaspiro[4.5]decan-4-yl]-[3-(trifluoromethyl)phenyl]methanone
@<TRIPOS>ATOM
      1 C1          1.1427    1.7522    0.5327 C.ar      1 <0>        -0.1158
      2 C2         -0.0417    1.0561    0.4043 C.ar      1 <0>        -0.0786
      3 C3         -1.2310    1.7466    0.1671 C.ar      1 <0>        -0.1488
      4 C4         -1.2155    3.1393    0.0723 C.ar      1 <0>        -0.0109
      5 C5         -0.0247    3.8231    0.2031 C.ar      1 <0>        -0.1845
      6 C6          1.1520    3.1319    0.4325 C.ar      1 <0>        -0.0315
      7 C7         -0.0050    5.3261    0.0953 C.3       1 <0>         0.5090
      8 F1          1.3051    5.7883    0.2600 F         1 <0>        -0.1685
      9 F2         -0.4801    5.7096   -1.1634 F         1 <0>        -0.1721
     10 F3         -0.8218    5.8756    1.0894 F         1 <0>        -0.1740
     11 C8         -2.5029    1.0067    0.0223 C.2       1 <0>         0.5970
     12 O1         -3.5580    1.6099    0.0022 O.2       1 <0>        -0.5470
     13 N1         -2.4924   -0.3365   -0.0874 N.am      1 <0>        -0.6059
     14 C9         -1.3039   -1.2184   -0.1125 C.3       1 <0>         0.0438
     15 C10        -1.8453   -2.5028   -0.7893 C.3       1 <0>         0.0357
     16 O2         -3.1947   -2.5800   -0.2731 O.3       1 <0>        -0.3410
     17 C11        -3.6595   -1.2239   -0.1999 C.3       1 <0>         0.3192
     18 C12        -4.4448   -0.8835   -1.4678 C.3       1 <0>        -0.1338
     19 C13        -4.9857    0.5443   -1.3583 C.3       1 <0>        -0.0004
     20 N2         -5.8473    0.6529   -0.1743 N.pl3     1 <0>        -0.4695
     21 C14        -5.0955    0.3832    1.0580 C.3       1 <0>        -0.0312
     22 C15        -4.5584   -1.0499    1.0255 C.3       1 <0>        -0.1105
     23 C16        -6.4642    1.8980   -0.1193 C.ar      1 <0>         0.4035
     24 C17        -7.7065    2.0799   -0.7213 C.ar      1 <0>        -0.0604
     25 C18        -8.3110    3.3229   -0.6538 C.ar      1 <0>         0.0702
     26 C19        -7.6457    4.3482    0.0059 C.ar      1 <0>        -0.2037
     27 C20        -6.4137    4.0985    0.5753 C.ar      1 <0>         0.1977
     28 C21        -8.2634    5.7196    0.0994 C.3       1 <0>         0.5290
     29 F4         -7.4065    6.5698    0.8067 F         1 <0>        -0.1611
     30 F5         -8.4668    6.2283   -1.1879 F         1 <0>        -0.1532
     31 F6         -9.4903    5.6341    0.7662 F         1 <0>        -0.1532
     32 Cl1        -8.4891    0.7640   -1.5396 Cl        1 <0>         0.0555
     33 H1          2.0646    1.2187    0.7114 H         1 <0>         0.1520
     34 H2         -0.0476   -0.0210    0.4827 H         1 <0>         0.1626
     35 H3         -2.1331    3.6798   -0.1071 H         1 <0>         0.1422
     36 H4          2.0818    3.6720    0.5333 H         1 <0>         0.1528
     37 H5         -0.5062   -0.7747   -0.7083 H         1 <0>         0.1163
     38 H6         -0.9572   -1.4284    0.8993 H         1 <0>         0.1061
     39 H7         -1.8508   -2.3963   -1.8741 H         1 <0>         0.0844
     40 H8         -1.2622   -3.3737   -0.4900 H         1 <0>         0.1256
     41 H9         -3.7876   -0.9584   -2.3341 H         1 <0>         0.0918
     42 H10        -5.2758   -1.5800   -1.5792 H         1 <0>         0.1015
     43 H11        -5.5635    0.7833   -2.2512 H         1 <0>         0.0850
     44 H12        -4.1533    1.2421   -1.2670 H         1 <0>         0.1476
     45 H13        -5.7530    0.5053    1.9188 H         1 <0>         0.0837
     46 H14        -4.2623    1.0817    1.1354 H         1 <0>         0.1404
     47 H15        -5.3920   -1.7498    0.9678 H         1 <0>         0.1015
     48 H16        -3.9820   -1.2432    1.9302 H         1 <0>         0.0948
     49 H17        -9.2762    3.4930   -1.1076 H         1 <0>         0.1970
     50 H18        -5.8931    4.8933    1.0888 H         1 <0>         0.2139
     51 N3         -5.7922    2.8893    0.5336 N.ar      1 <0>        -0.4887
     52 H19        -4.8745    2.7325    0.9665 H         1 <0>         0.4843
@<TRIPOS>BOND
     1    1    6 ar
     2    1    2 ar
     3    1   33 1
     4    2    3 ar
     5    2   34 1
     6    3    4 ar
     7    3   11 1
     8    4    5 ar
     9    4   35 1
    10    5    6 ar
    11    5    7 1
    12    6   36 1
    13    7    8 1
    14    7    9 1
    15    7   10 1
    16   11   12 2
    17   11   13 am
    18   13   17 1
    19   13   14 1
    20   14   15 1
    21   14   37 1
    22   14   38 1
    23   15   16 1
    24   15   39 1
    25   15   40 1
    26   16   17 1
    27   17   22 1
    28   17   18 1
    29   18   19 1
    30   18   41 1
    31   18   42 1
    32   19   20 1
    33   19   43 1
    34   19   44 1
    35   20   21 1
    36   20   23 1
    37   21   22 1
    38   21   45 1
    39   21   46 1
    40   22   47 1
    41   22   48 1
    42   23   24 ar
    43   23   51 ar
    44   24   25 ar
    45   24   32 1
    46   25   26 ar
    47   25   49 1
    48   26   27 ar
    49   26   28 1
    50   27   50 1
    51   27   51 ar
    52   28   29 1
    53   28   30 1
    54   28   31 1
    55   51   52 1
@<TRIPOS>MOLECULE
ZINC38989642
   55    58     0     0     0
SMALL
USER_CHARGES

@<TRIPOS>ATOM
      1 C1         -0.0958   -2.6475    3.0826 C.3       1 <0>         0.0130
      2 O1         -0.1115   -3.8228    2.2698 O.3       1 <0>        -0.2990
      3 C2          0.5993   -3.7818    1.1118 C.ar      1 <0>         0.0821
      4 C3          1.3031   -2.6183    0.7791 C.ar      1 <0>         0.0178
      5 C4          2.0335   -2.5060   -0.3599 C.ar      1 <0>        -0.1955
      6 C5          2.1121   -3.5778   -1.2687 C.ar      1 <0>         0.3498
      7 N1          2.8332   -3.4534   -2.3831 N.am      1 <0>        -0.5877
      8 C6          2.9503   -4.4188   -3.2791 C.2       1 <0>         0.4821
      9 O2          3.6233   -4.2467   -4.2778 O.2       1 <0>        -0.3660
     10 C7          2.2448   -5.7377   -3.0573 C.3       1 <0>        -0.1570
     11 H1          2.9988   -6.5249   -3.0599 H         1 <0>         0.1814
     12 C8          1.4235   -5.8845   -1.7914 C.2       1 <0>         0.1446
     13 C9          1.3819   -4.8161   -0.9459 C.ar      1 <0>        -0.1568
     14 C10         0.6176   -4.8756    0.3004 C.ar      1 <0>        -0.0462
     15 C11         1.3164   -5.9797   -4.2491 C.3       1 <0>         0.1345
     16 N2          2.1166   -6.2878   -5.4369 N.pl3     1 <0>        -0.9300
     17 C12         2.9700   -7.3972   -5.4373 C.ar      1 <0>         0.0787
     18 C13         2.4688   -8.6601   -5.7172 C.ar      1 <0>        -0.0574
     19 C14         3.3137   -9.7540   -5.7175 C.ar      1 <0>        -0.1421
     20 C15         4.6584   -9.5932   -5.4394 C.ar      1 <0>        -0.0576
     21 C16         5.1651   -8.3374   -5.1595 C.ar      1 <0>        -0.1995
     22 C17         4.3261   -7.2353   -5.1624 C.ar      1 <0>         0.1220
     23 O3          4.8241   -5.9987   -4.8923 O.3       1 <0>        -0.2919
     24 C18         6.2239   -5.9084   -4.6196 C.3       1 <0>         0.0200
     25 S1          2.0115   -5.3234   -6.7790 S.o2      1 <0>         2.6803
     26 O4          2.4721   -6.1015   -7.8752 O.2       1 <0>        -0.9276
     27 O5          0.7196   -4.7321   -6.7541 O.2       1 <0>        -0.9487
     28 C19         3.1697   -4.0121   -6.5703 C.ar      1 <0>        -0.6394
     29 C20         2.7478   -2.7883   -6.0853 C.ar      1 <0>        -0.0087
     30 C21         3.6558   -1.7593   -5.9213 C.ar      1 <0>        -0.1374
     31 C22         4.9873   -1.9542   -6.2428 C.ar      1 <0>         0.0232
     32 C23         5.4090   -3.1792   -6.7282 C.ar      1 <0>        -0.1284
     33 C24         4.5010   -4.2093   -6.8864 C.ar      1 <0>         0.0357
     34 Cl1         6.1283   -0.6620   -6.0377 Cl        1 <0>        -0.0538
     35 H2          0.9295   -2.4224    3.3761 H         1 <0>         0.0658
     36 H3         -0.5043   -1.8096    2.5176 H         1 <0>         0.0664
     37 H4         -0.7007   -2.8140    3.9739 H         1 <0>         0.1201
     38 H5          1.2631   -1.7767    1.4548 H         1 <0>         0.1703
     39 H6          2.5585   -1.5860   -0.5705 H         1 <0>         0.1735
     40 H7          0.8935   -6.7987   -1.5683 H         1 <0>         0.2025
     41 H8          0.0745   -5.7693    0.5701 H         1 <0>         0.1799
     42 H9          0.6544   -6.8174   -4.0297 H         1 <0>         0.1187
     43 H10         0.7215   -5.0852   -4.4337 H         1 <0>         0.1142
     44 H11         1.4187   -8.7885   -5.9345 H         1 <0>         0.1387
     45 H12         2.9224  -10.7368   -5.9352 H         1 <0>         0.1369
     46 H13         5.3149  -10.4508   -5.4404 H         1 <0>         0.1345
     47 H14         6.2160   -8.2153   -4.9427 H         1 <0>         0.1367
     48 H15         6.4643   -6.5177   -3.7483 H         1 <0>         0.0554
     49 H16         6.7860   -6.2688   -5.4811 H         1 <0>         0.0615
     50 H17         6.4892   -4.8700   -4.4212 H         1 <0>         0.0999
     51 H18         1.7083   -2.6361   -5.8347 H         1 <0>         0.1379
     52 H19         3.3260   -0.8031   -5.5427 H         1 <0>         0.1375
     53 H20         6.4482   -3.3319   -6.9796 H         1 <0>         0.1394
     54 H21         4.8309   -5.1671   -7.2608 H         1 <0>         0.1384
     55 H22         3.2934   -2.6149   -2.5444 H         1 <0>         0.4367
@<TRIPOS>BOND
     1    1    2 1
     2    1   35 1
     3    1   36 1
     4    1   37 1
     5    2    3 1
     6    3   14 ar
     7    3    4 ar
     8    4    5 ar
     9    4   38 1
    10    5    6 ar
    11    5   39 1
    12    6   13 ar
    13    6    7 2
    14    7    8 am
    15    7   55 1
    16    8    9 2
    17    8   10 1
    18   10   11 1
    19   10   12 1
    20   10   15 1
    21   12   13 2
    22   12   40 1
    23   13   14 ar
    24   14   41 1
    25   15   16 1
    26   15   42 1
    27   15   43 1
    28   16   17 1
    29   16   25 1
    30   17   22 ar
    31   17   18 ar
    32   18   19 ar
    33   18   44 1
    34   19   20 ar
    35   19   45 1
    36   20   21 ar
    37   20   46 1
    38   21   22 ar
    39   21   47 1
    40   22   23 1
    41   23   24 1
    42   24   48 1
    43   24   49 1
    44   24   50 1
    45   25   26 2
    46   25   27 2
    47   25   28 1
    48   28   33 ar
    49   28   29 ar
    50   29   30 ar
    51   29   51 1
    52   30   31 ar
    53   30   52 1
    54   31   32 ar
    55   31   34 1
    56   32   33 ar
    57   32   53 1
    58   33   54 1
@<TRIPOS>MOLECULE
ZINC63140104
   72    77     0     0     0
SMALL
USER_CHARGES

@<TRIPOS>ATOM
      1 C1         -0.0187    1.5258    0.0104 C.3       1 <0>        -0.1442
      2 C2          0.0021   -0.0041    0.0020 C.3       1 <0>        -0.0639
      3 C3          0.7421   -0.5109    1.2415 C.3       1 <0>        -0.1473
      4 C4         -1.4117   -0.5257    0.0127 C.ar      1 <0>        -0.0479
      5 C5         -2.2591   -0.2043    1.0565 C.ar      1 <0>        -0.1087
      6 C6         -3.5560   -0.6827    1.0663 C.ar      1 <0>        -0.0954
      7 C7         -4.0056   -1.4823    0.0321 C.ar      1 <0>        -0.1493
      8 C8         -3.1585   -1.8029   -1.0121 C.ar      1 <0>        -0.0975
      9 C9         -1.8629   -1.3209   -1.0241 C.ar      1 <0>        -0.1120
     10 C10        -5.4191   -2.0047    0.0433 C.3       1 <0>         0.2055
     11 H1         -5.8049   -1.9611    1.0619 H         1 <0>         0.1317
     12 C11        -6.2834   -1.1195   -0.8539 C.3       1 <0>         0.0914
     13 H2         -7.3447   -1.2656   -0.6529 H         1 <0>         0.1832
     14 C12        -5.9270   -1.5046   -2.2879 C.2       1 <0>         0.0580
     15 C13        -5.4412   -0.4153   -2.8668 C.ar      1 <0>        -0.1451
     16 C14        -4.9607   -0.1646   -4.2356 C.ar      1 <0>         0.0028
     17 C15        -4.5177    1.0939   -4.4948 C.ar      1 <0>        -0.1583
     18 C16        -4.5051    2.1162   -3.5409 C.ar      1 <0>         0.0587
     19 C17        -4.9286    1.9753   -2.2597 C.ar      1 <0>        -0.2066
     20 C18        -5.4193    0.6956   -1.8674 C.ar      1 <0>         0.3474
     21 N1         -5.8994    0.2909   -0.7086 N.pl3     1 <0>        -0.5756
     22 C19        -6.1221   -2.9093   -2.7889 C.3       1 <0>        -0.0813
     23 C20        -5.7041   -3.8935   -1.7274 C.3       1 <0>         0.1180
     24 H3         -6.5639   -4.5485   -1.5869 H         1 <0>         0.1130
     25 N2         -5.4154   -3.3902   -0.4027 N.am      1 <0>        -0.6103
     26 C21        -5.0502   -4.3411    0.5192 C.2       1 <0>         0.5152
     27 O1         -4.8484   -4.0550    1.6804 O.2       1 <0>        -0.4771
     28 C22        -4.9122   -5.7629    0.0176 C.3       1 <0>         0.0889
     29 N3         -4.1885   -5.7372   -1.2670 N.am      1 <0>        -0.6077
     30 C23        -4.5913   -4.8072   -2.1756 C.2       1 <0>         0.5078
     31 O2         -4.0878   -4.7209   -3.2756 O.2       1 <0>        -0.4965
     32 C24        -3.0912   -6.6656   -1.5503 C.3       1 <0>         0.1249
     33 C25        -3.6506   -7.9338   -2.1982 C.3       1 <0>        -0.0872
     34 C26        -2.5219   -8.8888   -2.4896 C.ar      1 <0>        -0.1307
     35 C27        -1.8640   -8.8296   -3.7042 C.ar      1 <0>        -0.0709
     36 C28        -0.8293   -9.7043   -3.9740 C.ar      1 <0>        -0.1499
     37 C29        -0.4502  -10.6423   -3.0248 C.ar      1 <0>         0.1319
     38 C30        -1.1116  -10.6994   -1.8066 C.ar      1 <0>        -0.2067
     39 C31        -2.1423   -9.8191   -1.5397 C.ar      1 <0>        -0.0727
     40 O3          0.5671  -11.5041   -3.2879 O.3       1 <0>        -0.3164
     41 C32         0.9032  -12.4430   -2.2644 C.3       1 <0>         0.0257
     42 H4          1.0039    1.9031    0.0027 H         1 <0>         0.0657
     43 H5         -0.5459    1.8868   -0.8726 H         1 <0>         0.0538
     44 H6         -0.5289    1.8773    0.9072 H         1 <0>         0.0574
     45 H7          0.5123   -0.3556   -0.8948 H         1 <0>         0.0815
     46 H8          0.2319   -0.1594    2.1383 H         1 <0>         0.0581
     47 H9          0.7568   -1.6008    1.2356 H         1 <0>         0.0571
     48 H10         1.7647   -0.1336    1.2338 H         1 <0>         0.0657
     49 H11        -1.9079    0.4204    1.8645 H         1 <0>         0.1305
     50 H12        -4.2179   -0.4322    1.8822 H         1 <0>         0.1256
     51 H13        -3.5096   -2.4278   -1.8199 H         1 <0>         0.1161
     52 H14        -1.2022   -1.5684   -1.8418 H         1 <0>         0.1269
     53 H15        -4.9599   -0.9369   -4.9906 H         1 <0>         0.1717
     54 H16        -4.1574    1.3158   -5.4885 H         1 <0>         0.1562
     55 H17        -4.1326    3.0834   -3.8444 H         1 <0>         0.1580
     56 H18        -4.8953    2.8006   -1.5639 H         1 <0>         0.1684
     57 H19        -7.1731   -3.0642   -3.0328 H         1 <0>         0.1461
     58 H20        -5.5176   -3.0622   -3.6830 H         1 <0>         0.1414
     59 H21        -4.3518   -6.3541    0.7419 H         1 <0>         0.1336
     60 H22        -5.9011   -6.1977   -0.1278 H         1 <0>         0.1154
     61 H23        -2.3818   -6.1932   -2.2297 H         1 <0>         0.0919
     62 H24        -2.5858   -6.9254   -0.6202 H         1 <0>         0.0882
     63 H25        -4.3601   -8.4063   -1.5188 H         1 <0>         0.0760
     64 H26        -4.1561   -7.6740   -3.1283 H         1 <0>         0.0782
     65 H27        -2.1594   -8.0992   -4.4428 H         1 <0>         0.1294
     66 H28        -0.3161   -9.6581   -4.9232 H         1 <0>         0.1327
     67 H29        -0.8184  -11.4288   -1.0661 H         1 <0>         0.1301
     68 H30        -2.6546   -9.8602   -0.5899 H         1 <0>         0.1245
     69 H31         1.7288  -13.0691   -2.6025 H         1 <0>         0.1037
     70 H32         1.1993  -11.9070   -1.3627 H         1 <0>         0.0567
     71 H33         0.0377  -13.0690   -2.0472 H         1 <0>         0.0574
     72 H34        -5.9843    0.8194    0.1004 H         1 <0>         0.4572
@<TRIPOS>BOND
     1    1    2 1
     2    1   42 1
     3    1   43 1
     4    1   44 1
     5    2    3 1
     6    2    4 1
     7    2   45 1
     8    3   46 1
     9    3   47 1
    10    3   48 1
    11    4    9 ar
    12    4    5 ar
    13    5    6 ar
    14    5   49 1
    15    6    7 ar
    16    6   50 1
    17    7    8 ar
    18    7   10 1
    19    8    9 ar
    20    8   51 1
    21    9   52 1
    22   10   11 1
    23   10   25 1
    24   10   12 1
    25   12   13 1
    26   12   21 1
    27   12   14 1
    28   14   15 2
    29   14   22 1
    30   15   20 ar
    31   15   16 ar
    32   16   17 ar
    33   16   53 1
    34   17   18 ar
    35   17   54 1
    36   18   19 ar
    37   18   55 1
    38   19   20 ar
    39   19   56 1
    40   20   21 2
    41   21   72 1
    42   22   23 1
    43   22   57 1
    44   22   58 1
    45   23   24 1
    46   23   30 1
    47   23   25 1
    48   25   26 am
    49   26   27 2
    50   26   28 1
    51   28   29 1
    52   28   59 1
    53   28   60 1
    54   29   30 am
    55   29   32 1
    56   30   31 2
    57   32   33 1
    58   32   61 1
    59   32   62 1
    60   33   34 1
    61   33   63 1
    62   33   64 1
    63   34   39 ar
    64   34   35 ar
    65   35   36 ar
    66   35   65 1
    67   36   37 ar
    68   36   66 1
    69   37   38 ar
    70   37   40 1
    71   38   39 ar
    72   38   67 1
    73   39   68 1
    74   40   41 1
    75   41   69 1
    76   41   70 1
    77   41   71 1
@<TRIPOS>MOLECULE
ZINC63373991
   65    70     0     0     0
SMALL
USER_CHARGES

@<TRIPOS>ATOM
      1 C1         -0.0187    1.5258    0.0104 C.3       1 <0>        -0.1478
      2 C2          0.0021   -0.0041    0.0020 C.3       1 <0>        -0.0944
      3 C3          0.7074   -0.4901   -1.2379 C.ar      1 <0>        -0.0572
      4 C4         -0.0105   -0.7185   -2.3969 C.ar      1 <0>        -0.1069
      5 C5          0.6365   -1.1643   -3.5342 C.ar      1 <0>        -0.0917
      6 C6          2.0016   -1.3812   -3.5126 C.ar      1 <0>        -0.1045
      7 C7          2.7197   -1.1520   -2.3539 C.ar      1 <0>        -0.1170
      8 C8          2.0733   -0.7021   -1.2178 C.ar      1 <0>        -0.1090
      9 C9          2.7068   -1.8682   -4.7522 C.3       1 <0>        -0.0161
     10 H1          1.9899   -1.9940   -5.5636 H         1 <0>         0.1384
     11 C10         3.4160   -3.2031   -4.4645 C.3       1 <0>         0.1066
     12 N1          4.5991   -2.9540   -3.6180 N.am      1 <0>        -0.6043
     13 C11         4.6634   -3.5665   -2.4303 C.2       1 <0>         0.5162
     14 O1          3.7297   -4.2714   -2.1108 O.2       1 <0>        -0.4895
     15 C12         5.7993   -3.4469   -1.4699 C.3       1 <0>         0.0888
     16 N2          6.8554   -2.5846   -1.9735 N.am      1 <0>        -0.5814
     17 C13         6.7979   -1.9594   -3.1477 C.2       1 <0>         0.5201
     18 O2          7.7403   -1.2657   -3.4664 O.2       1 <0>        -0.5203
     19 C14         5.6509   -2.0560   -4.0982 C.3       1 <0>         0.1731
     20 C15         5.0350   -0.6706   -4.3192 C.3       1 <0>         0.0843
     21 H2          4.7859   -0.2063   -3.3650 H         1 <0>         0.1742
     22 C16         3.7770   -0.8853   -5.1569 C.2       1 <0>         0.0725
     23 C17         3.8867   -0.0864   -6.2106 C.ar      1 <0>        -0.1509
     24 C18         2.9553    0.2233   -7.3073 C.ar      1 <0>         0.0024
     25 C19         3.4097    1.0865   -8.2540 C.ar      1 <0>        -0.1564
     26 C20         4.6818    1.6660   -8.2198 C.ar      1 <0>         0.0581
     27 C21         5.5990    1.4456   -7.2443 C.ar      1 <0>        -0.2029
     28 C22         5.2330    0.5627   -6.1870 C.ar      1 <0>         0.3359
     29 N3          5.9074    0.2037   -5.1031 N.pl3     1 <0>        -0.5723
     30 C23         6.1651   -2.5712   -5.4439 C.3       1 <0>        -0.1677
     31 C24         8.0475   -2.3925   -1.1439 C.3       1 <0>         0.1484
     32 C25         9.0712   -3.4447   -1.4843 C.ar      1 <0>        -0.1118
     33 C26         9.0727   -4.6515   -0.8096 C.ar      1 <0>        -0.1014
     34 C27        10.0113   -5.6170   -1.1212 C.ar      1 <0>        -0.1049
     35 C28        10.9495   -5.3764   -2.1076 C.ar      1 <0>        -0.0977
     36 C29        10.9486   -4.1692   -2.7830 C.ar      1 <0>        -0.0383
     37 C30        10.0048   -3.2053   -2.4747 C.ar      1 <0>        -0.0863
     38 Cl1        12.1265   -3.8664   -4.0218 Cl        1 <0>        -0.0607
     39 H3          1.0039    1.9031    0.0027 H         1 <0>         0.0541
     40 H4         -0.5459    1.8868   -0.8726 H         1 <0>         0.0569
     41 H5         -0.5289    1.8773    0.9072 H         1 <0>         0.0650
     42 H6          0.5293   -0.3651    0.8851 H         1 <0>         0.0768
     43 H7         -1.0205   -0.3814    0.0098 H         1 <0>         0.0793
     44 H8         -1.0770   -0.5490   -2.4137 H         1 <0>         0.1325
     45 H9          0.0755   -1.3434   -4.4395 H         1 <0>         0.1316
     46 H10         3.7861   -1.3218   -2.3370 H         1 <0>         0.1071
     47 H11         2.6349   -0.5194   -0.3136 H         1 <0>         0.1260
     48 H12         2.7318   -3.8741   -3.9451 H         1 <0>         0.1388
     49 H13         3.7299   -3.6583   -5.4038 H         1 <0>         0.0992
     50 H14         5.4267   -3.0383   -0.5305 H         1 <0>         0.1275
     51 H15         6.2111   -4.4388   -1.2837 H         1 <0>         0.1267
     52 H16         1.9676   -0.2107   -7.3572 H         1 <0>         0.1714
     53 H17         2.7542    1.3379   -9.0747 H         1 <0>         0.1572
     54 H18         4.9528    2.3337   -9.0242 H         1 <0>         0.1600
     55 H19         6.5686    1.9207   -7.2683 H         1 <0>         0.1710
     56 H20         5.3448   -2.5951   -6.1613 H         1 <0>         0.0818
     57 H21         6.9495   -1.9092   -5.8108 H         1 <0>         0.0899
     58 H22         6.5674   -3.5765   -5.3184 H         1 <0>         0.0942
     59 H23         8.4660   -1.4039   -1.3326 H         1 <0>         0.1099
     60 H24         7.7755   -2.4771   -0.0918 H         1 <0>         0.1057
     61 H25         8.3403   -4.8396   -0.0384 H         1 <0>         0.1308
     62 H26        10.0120   -6.5595   -0.5938 H         1 <0>         0.1382
     63 H27        11.6834   -6.1307   -2.3505 H         1 <0>         0.1380
     64 H28        10.0008   -2.2644   -3.0048 H         1 <0>         0.1388
     65 H29         6.8120    0.4626   -4.8671 H         1 <0>         0.4640
@<TRIPOS>BOND
     1    1    2 1
     2    1   39 1
     3    1   40 1
     4    1   41 1
     5    2    3 1
     6    2   42 1
     7    2   43 1
     8    3    8 ar
     9    3    4 ar
    10    4    5 ar
    11    4   44 1
    12    5    6 ar
    13    5   45 1
    14    6    7 ar
    15    6    9 1
    16    7    8 ar
    17    7   46 1
    18    8   47 1
    19    9   10 1
    20    9   22 1
    21    9   11 1
    22   11   12 1
    23   11   48 1
    24   11   49 1
    25   12   19 1
    26   12   13 am
    27   13   14 2
    28   13   15 1
    29   15   16 1
    30   15   50 1
    31   15   51 1
    32   16   17 am
    33   16   31 1
    34   17   18 2
    35   17   19 1
    36   19   20 1
    37   19   30 1
    38   20   21 1
    39   20   29 1
    40   20   22 1
    41   22   23 2
    42   23   28 ar
    43   23   24 ar
    44   24   25 ar
    45   24   52 1
    46   25   26 ar
    47   25   53 1
    48   26   27 ar
    49   26   54 1
    50   27   28 ar
    51   27   55 1
    52   28   29 2
    53   29   65 1
    54   30   56 1
    55   30   57 1
    56   30   58 1
    57   31   32 1
    58   31   59 1
    59   31   60 1
    60   32   37 ar
    61   32   33 ar
    62   33   34 ar
    63   33   61 1
    64   34   35 ar
    65   34   62 1
    66   35   36 ar
    67   35   63 1
    68   36   37 ar
    69   36   38 1
    70   37   64 1
@<TRIPOS>MOLECULE
ZINC11290506
   46    48     0     0     0
SMALL
USER_CHARGES
2-[(2-bromophenyl)methyl-methyl-amino]-N-(2,9-dimethyl-5-oxo-8-oxa-3,4-diazabicyclo[4.3.0]nona-2,6,9-trien-7-yl)-acetamide
@<TRIPOS>ATOM
      1 C1          6.2096   -2.5319   -0.2959 C.3       1 <0>        -0.1033
      2 C2          4.7042   -2.5186   -0.2278 C.2       1 <0>         0.1891
      3 C3          3.9803   -1.2446   -0.1847 C.2       1 <0>        -0.1657
      4 C4          4.3033    0.0657   -0.1885 C.2       1 <0>         0.0713
      5 O1          3.1756    0.7983   -0.1365 O.3       1 <0>        -0.1433
      6 C5          2.0866    0.0155   -0.0881 C.2       1 <0>         0.3086
      7 C6          2.4989   -1.2947   -0.1177 C.2       1 <0>        -0.2539
      8 C7          1.8678   -2.6103   -0.0995 C.2       1 <0>         0.5720
      9 O2          0.6555   -2.7169   -0.0453 O.2       1 <0>        -0.5384
     10 N1          2.6535   -3.7065   -0.1440 N.am      1 <0>        -0.5312
     11 H1          2.2332   -4.5806   -0.1319 H         1 <0>         0.4412
     12 N2          4.0429   -3.6347   -0.2066 N.2       1 <0>        -0.2409
     13 N3          0.7745    0.4526   -0.0252 N.am      1 <0>        -0.6018
     14 C8          0.5044    1.7728   -0.0019 C.2       1 <0>         0.4976
     15 O3          1.4108    2.5779   -0.0361 O.2       1 <0>        -0.4822
     16 C9         -0.9242    2.2487    0.0602 C.3       1 <0>        -0.0257
     17 C10        -0.4547    4.2658   -1.1942 C.3       1 <0>        -0.0569
     18 C11        -2.3000    4.2164    0.3726 C.3       1 <0>         0.0389
     19 C12        -2.5859    4.0459    1.8424 C.ar      1 <0>        -0.1427
     20 C13        -3.4305    3.0385    2.2700 C.ar      1 <0>        -0.0843
     21 C14        -3.6894    2.8793    3.6184 C.ar      1 <0>        -0.0946
     22 C15        -3.1114    3.7334    4.5393 C.ar      1 <0>        -0.0761
     23 C16        -2.2710    4.7440    4.1123 C.ar      1 <0>        -0.0792
     24 C17        -2.0078    4.9007    2.7632 C.ar      1 <0>        -0.0867
     25 Br1        -0.8585    6.2838    2.1782 Br        1 <0>        -0.0278
     26 C18         5.7034    0.6202   -0.2476 C.3       1 <0>        -0.0876
     27 H2          6.6189   -2.5435    0.7143 H         1 <0>         0.0953
     28 H3          6.5412   -3.4208   -0.8325 H         1 <0>         0.0939
     29 H4          6.5575   -1.6410   -0.8187 H         1 <0>         0.0898
     30 H5          0.0495   -0.1913    0.0021 H         1 <0>         0.4505
     31 H6         -1.4668    1.8842   -0.8120 H         1 <0>         0.1760
     32 H7         -1.3950    1.8676    0.9664 H         1 <0>         0.1645
     33 H8         -1.0192    3.8353   -2.0213 H         1 <0>         0.1295
     34 H9         -0.5780    5.3488   -1.1950 H         1 <0>         0.1295
     35 H10         0.6011    4.0202   -1.3081 H         1 <0>         0.1382
     36 H11        -2.3628    5.2726    0.1104 H         1 <0>         0.1489
     37 H12        -3.0316    3.6539   -0.2075 H         1 <0>         0.1528
     38 H13        -3.8855    2.3737    1.5507 H         1 <0>         0.1463
     39 H14        -4.3464    2.0898    3.9524 H         1 <0>         0.1471
     40 H15        -3.3169    3.6109    5.5925 H         1 <0>         0.1484
     41 H16        -1.8201    5.4115    4.8317 H         1 <0>         0.1487
     42 H17         5.9942    0.7624   -1.2884 H         1 <0>         0.0996
     43 H18         5.7375    1.5771    0.2731 H         1 <0>         0.0905
     44 H19         6.3911   -0.0779    0.2297 H         1 <0>         0.1082
     45 N4         -0.9333    3.7263    0.0960 N.4       1 <0>        -0.3856
     46 H20        -0.3067    4.0457    0.8441 H         1 <0>         0.4316
@<TRIPOS>BOND
     1    1    2 1
     2    1   27 1
     3    1   28 1
     4    1   29 1
     5    2   12 2
     6    2    3 1
     7    3    7 1
     8    3    4 2
     9    4    5 1
    10    4   26 1
    11    5    6 1
    12    6    7 2
    13    6   13 1
    14    7    8 1
    15    8    9 2
    16    8   10 am
    17   10   11 1
    18   10   12 1
    19   13   14 am
    20   13   30 1
    21   14   15 2
    22   14   16 1
    23   16   31 1
    24   16   32 1
    25   16   45 1
    26   17   33 1
    27   17   34 1
    28   17   35 1
    29   17   45 1
    30   18   19 1
    31   18   36 1
    32   18   37 1
    33   18   45 1
    34   19   24 ar
    35   19   20 ar
    36   20   21 ar
    37   20   38 1
    38   21   22 ar
    39   21   39 1
    40   22   23 ar
    41   22   40 1
    42   23   24 ar
    43   23   41 1
    44   24   25 1
    45   26   42 1
    46   26   43 1
    47   26   44 1
    48   45   46 1
@<TRIPOS>MOLECULE
ZINC33416027
   57    60     0     0     0
SMALL
USER_CHARGES
methyl 2-[[(3R)-2,3-dihydro-1,4-benzodioxine-3-carbonyl]amino]-5,5,7,7-tetramethyl-4,6-dihydrothieno[2,3-c]pyridine-3-carboxylate
@<TRIPOS>ATOM
      1 C1         -0.0127    1.0858    0.0080 C.3       1 <0>        -0.1769
      2 C2         -0.7335    1.5825    1.2750 C.3       1 <0>         0.0691
      3 C3         -0.6874    3.1152    1.2727 C.3       1 <0>        -0.0745
      4 C4         -1.4900    3.5966    2.4742 C.2       1 <0>        -0.0314
      5 C5         -1.2431    4.8044    3.2328 C.2       1 <0>        -0.2115
      6 C6         -2.0895    5.0671    4.3055 C.2       1 <0>         0.1117
      7 S1         -3.1863    3.7257    4.2840 S.3       1 <0>         0.3328
      8 C7         -2.5379    2.8484    2.8912 C.2       1 <0>        -0.2911
      9 C8         -3.0190    1.5729    2.2803 C.3       1 <0>         0.1608
     10 N1         -2.0976    1.0803    1.2616 N.4       1 <0>        -0.5164
     11 C9         -3.2083    0.5206    3.3818 C.3       1 <0>        -0.1809
     12 C10        -4.3913    1.8330    1.6308 C.3       1 <0>        -0.1792
     13 N2         -2.0596    6.1425    5.1792 N.am      1 <0>        -0.6305
     14 C11        -2.9693    6.2315    6.1697 C.2       1 <0>         0.5278
     15 O1         -3.8141    5.3705    6.2964 O.2       1 <0>        -0.4622
     16 C12        -2.9369    7.4008    7.1198 C.3       1 <0>         0.0411
     17 H1         -1.9562    7.4457    7.6160 H         1 <0>         0.1261
     18 C13        -3.2710    8.6928    6.3619 C.3       1 <0>         0.0342
     19 O2         -3.2446    9.7789    7.2943 O.3       1 <0>        -0.2923
     20 C14        -3.8889    9.5848    8.4774 C.ar      1 <0>         0.0424
     21 C15        -4.2131   10.6805    9.2637 C.ar      1 <0>        -0.1072
     22 C16        -4.8648   10.4994   10.4688 C.ar      1 <0>        -0.1075
     23 C17        -5.1948    9.2261   10.8943 C.ar      1 <0>        -0.1081
     24 C18        -4.8752    8.1301   10.1155 C.ar      1 <0>        -0.1057
     25 C19        -4.2227    8.3050    8.9041 C.ar      1 <0>         0.0464
     26 O3         -3.9180    7.2164    8.1460 O.3       1 <0>        -0.2831
     27 C20        -0.1533    5.7218    2.8934 C.2       1 <0>         0.5202
     28 O4         -0.3479    6.6358    2.1147 O.2       1 <0>        -0.4802
     29 O5          1.0663    5.5533    3.4444 O.3       1 <0>        -0.3507
     30 C21         2.0988    6.5002    3.0623 C.3       1 <0>         0.0254
     31 C22         0.0350    1.0560    2.4903 C.3       1 <0>        -0.1740
     32 H2          1.0221    1.4588    0.0048 H         1 <0>         0.1066
     33 H3         -0.5393    1.4580   -0.8831 H         1 <0>         0.0829
     34 H4         -0.0060   -0.0141   -0.0027 H         1 <0>         0.0864
     35 H5          0.3575    3.4507    1.3479 H         1 <0>         0.1169
     36 H6         -1.1277    3.4939    0.3385 H         1 <0>         0.1089
     37 H7         -2.5717    1.3324    0.3016 H         1 <0>         0.4474
     38 H8         -3.5626   -0.4195    2.9338 H         1 <0>         0.0935
     39 H9         -3.9491    0.8817    4.1104 H         1 <0>         0.1059
     40 H10        -2.2488    0.3456    3.8905 H         1 <0>         0.0875
     41 H11        -4.7630    0.9037    1.1745 H         1 <0>         0.0924
     42 H12        -4.2893    2.6068    0.8557 H         1 <0>         0.0868
     43 H13        -5.1015    2.1742    2.3984 H         1 <0>         0.1078
     44 H14        -1.2934    6.9234    5.0643 H         1 <0>         0.4559
     45 H15        -2.5253    8.8566    5.5700 H         1 <0>         0.1278
     46 H16        -4.2709    8.6057    5.9117 H         1 <0>         0.0917
     47 H17        -3.9563   11.6763    8.9336 H         1 <0>         0.1397
     48 H18        -5.1170   11.3540   11.0790 H         1 <0>         0.1387
     49 H19        -5.7032    9.0876   11.8370 H         1 <0>         0.1387
     50 H20        -5.1346    7.1365   10.4500 H         1 <0>         0.1387
     51 H21         3.0362    6.2493    3.5803 H         1 <0>         0.1119
     52 H22         1.7858    7.5168    3.3424 H         1 <0>         0.0703
     53 H23         2.2565    6.4517    1.9747 H         1 <0>         0.0695
     54 H24        -0.4591    1.3965    3.4122 H         1 <0>         0.0824
     55 H25         1.0666    1.4369    2.4649 H         1 <0>         0.1033
     56 H26         0.0495   -0.0437    2.4667 H         1 <0>         0.0831
     57 H27        -2.0874   -0.0122    1.3898 H         1 <0>         0.4509
@<TRIPOS>BOND
     1    1    2 1
     2    1   32 1
     3    1   33 1
     4    1   34 1
     5    2   10 1
     6    2    3 1
     7    2   31 1
     8    3    4 1
     9    3   35 1
    10    3   36 1
    11    4    8 2
    12    4    5 1
    13    5    6 2
    14    5   27 1
    15    6    7 1
    16    6   13 1
    17    7    8 1
    18    8    9 1
    19    9   10 1
    20    9   11 1
    21    9   12 1
    22   10   37 1
    23   10   57 1
    24   11   38 1
    25   11   39 1
    26   11   40 1
    27   12   41 1
    28   12   42 1
    29   12   43 1
    30   13   14 am
    31   13   44 1
    32   14   15 2
    33   14   16 1
    34   16   17 1
    35   16   26 1
    36   16   18 1
    37   18   19 1
    38   18   45 1
    39   18   46 1
    40   19   20 1
    41   20   25 ar
    42   20   21 ar
    43   21   22 ar
    44   21   47 1
    45   22   23 ar
    46   22   48 1
    47   23   24 ar
    48   23   49 1
    49   24   25 ar
    50   24   50 1
    51   25   26 1
    52   27   28 2
    53   27   29 1
    54   29   30 1
    55   30   51 1
    56   30   52 1
    57   30   53 1
    58   31   54 1
    59   31   55 1
    60   31   56 1
@<TRIPOS>MOLECULE
ZINC41652118
   54    55     0     0     0
SMALL
USER_CHARGES

@<TRIPOS>ATOM
      1 C1         -2.9741   -1.9544    0.5208 C.3       1 <0>        -0.1517
      2 C2         -1.5008   -1.5851    0.3363 C.3       1 <0>        -0.1108
      3 H1         -1.3872   -0.5025    0.3919 H         1 <0>         0.0940
      4 C3         -1.0166   -2.0806   -1.0295 C.3       1 <0>        -0.1347
      5 C4          0.4774   -1.7758   -1.1718 C.3       1 <0>        -0.1445
      6 C5          1.2379   -2.4281   -0.0152 C.3       1 <0>        -0.0188
      7 N1          0.7474   -1.8938    1.2608 N.4       1 <0>        -0.3839
      8 C6         -0.6672   -2.2436    1.4376 C.3       1 <0>        -0.0096
      9 C7          1.5328   -2.4645    2.3633 C.3       1 <0>         0.0147
     10 H2          1.1352   -2.1100    3.3142 H         1 <0>         0.1489
     11 C8          1.4483   -3.9913    2.3126 C.3       1 <0>        -0.1819
     12 C9          2.9934   -2.0297    2.2274 C.3       1 <0>         0.0932
     13 N2          3.0639   -0.5678    2.1646 N.am      1 <0>        -0.7263
     14 C10         4.2452    0.0409    1.9397 C.2       1 <0>         0.5205
     15 O1          5.2505   -0.6221    1.7892 O.2       1 <0>        -0.4833
     16 C11         4.3171    1.5313    1.8758 C.2       1 <0>         0.5100
     17 O2          3.3116    2.1944    2.0263 O.2       1 <0>        -0.4981
     18 N3          5.4984    2.1399    1.6509 N.am      1 <0>        -0.6328
     19 C12         5.5501    3.5276    1.4895 C.ar      1 <0>         0.1172
     20 C13         4.6989    4.3451    2.2254 C.ar      1 <0>        -0.0689
     21 C14         4.7457    5.7171    2.0707 C.ar      1 <0>        -0.1022
     22 C15         5.6388    6.2870    1.1835 C.ar      1 <0>         0.0131
     23 C16         6.4983    5.4740    0.4394 C.ar      1 <0>        -0.0977
     24 C17         6.4536    4.0883    0.6006 C.ar      1 <0>        -0.0643
     25 C18         7.4540    6.0792   -0.5098 C.2       1 <0>         0.4987
     26 O3          7.4942    7.2858   -0.6450 O.2       1 <0>        -0.4706
     27 O4          8.2814    5.2932   -1.2258 O.3       1 <0>        -0.3512
     28 C19         9.1799    5.9461   -2.1249 C.3       1 <0>         0.0345
     29 Cl1         5.6927    8.0116    0.9928 Cl        1 <0>        -0.0139
     30 H3         -3.3176   -1.6028    1.4937 H         1 <0>         0.0690
     31 H4         -3.5671   -1.4863   -0.2649 H         1 <0>         0.0786
     32 H5         -3.0870   -3.0371    0.4651 H         1 <0>         0.0677
     33 H6         -1.1781   -3.1559   -1.1053 H         1 <0>         0.0835
     34 H7         -1.5693   -1.5713   -1.8189 H         1 <0>         0.0958
     35 H8          0.8418   -2.1752   -2.1182 H         1 <0>         0.1143
     36 H9          0.6328   -0.6972   -1.1471 H         1 <0>         0.0870
     37 H10         1.0820   -3.5066   -0.0409 H         1 <0>         0.1358
     38 H11         2.3020   -2.2133   -0.1136 H         1 <0>         0.1293
     39 H12        -1.0096   -1.8925    2.4110 H         1 <0>         0.1321
     40 H13        -0.7823   -3.3261    1.3817 H         1 <0>         0.1339
     41 H14         2.0311   -4.4148    3.1306 H         1 <0>         0.1119
     42 H15         0.4078   -4.3011    2.4094 H         1 <0>         0.0912
     43 H16         1.8460   -4.3459    1.3617 H         1 <0>         0.0878
     44 H17         3.5597   -2.3842    3.0887 H         1 <0>         0.1214
     45 H18         3.4153   -2.4533    1.3159 H         1 <0>         0.1051
     46 H19         2.2604   -0.0379    2.2850 H         1 <0>         0.4094
     47 H20         6.3126    1.6151    1.6009 H         1 <0>         0.4293
     48 H21         3.9985    3.9057    2.9202 H         1 <0>         0.1547
     49 H22         4.0818    6.3464    2.6449 H         1 <0>         0.1535
     50 H23         7.1179    3.4549    0.0316 H         1 <0>         0.1553
     51 H24         9.7875    5.2000   -2.6370 H         1 <0>         0.1067
     52 H25         8.6096    6.5160   -2.8584 H         1 <0>         0.0646
     53 H26         9.8280    6.6204   -1.5650 H         1 <0>         0.0654
     54 H27         0.8468   -0.8897    1.2643 H         1 <0>         0.4172
@<TRIPOS>BOND
     1    1    2 1
     2    1   30 1
     3    1   31 1
     4    1   32 1
     5    2    3 1
     6    2    8 1
     7    2    4 1
     8    4    5 1
     9    4   33 1
    10    4   34 1
    11    5    6 1
    12    5   35 1
    13    5   36 1
    14    6    7 1
    15    6   37 1
    16    6   38 1
    17    7    8 1
    18    7    9 1
    19    7   54 1
    20    8   39 1
    21    8   40 1
    22    9   10 1
    23    9   11 1
    24    9   12 1
    25   11   41 1
    26   11   42 1
    27   11   43 1
    28   12   13 1
    29   12   44 1
    30   12   45 1
    31   13   14 am
    32   13   46 1
    33   14   15 2
    34   14   16 1
    35   16   17 2
    36   16   18 am
    37   18   19 1
    38   18   47 1
    39   19   24 ar
    40   19   20 ar
    41   20   21 ar
    42   20   48 1
    43   21   22 ar
    44   21   49 1
    45   22   23 ar
    46   22   29 1
    47   23   24 ar
    48   23   25 1
    49   24   50 1
    50   25   26 2
    51   25   27 1
    52   27   28 1
    53   28   51 1
    54   28   52 1
    55   28   53 1
@<TRIPOS>MOLECULE
ZINC60269694
   58    61     0     0     0
SMALL
USER_CHARGES

@<TRIPOS>ATOM
      1 C1         -4.1861   -2.7941    1.4311 C.3       1 <0>        -0.0814
      2 C2         -3.3984   -4.0782    1.3900 C.2       1 <0>        -0.1654
      3 C3         -3.8494   -5.3393    1.6021 C.2       1 <0>        -0.1986
      4 C4         -2.9650   -6.3879    1.5183 C.2       1 <0>        -0.0431
      5 C5         -1.6552   -6.0484    1.2157 C.2       1 <0>        -0.2869
      6 S1         -1.7623   -4.2754    1.0636 S.3       1 <0>         0.2002
      7 C6         -0.4877   -6.9205    1.0568 C.2       1 <0>         0.6179
      8 O1         -0.6041   -8.1241    1.1944 O.2       1 <0>        -0.5197
      9 N1          0.7145   -6.3894    0.7584 N.am      1 <0>        -0.7278
     10 C7          1.8813   -7.2610    0.5996 C.3       1 <0>         0.1382
     11 C8          1.9333   -7.7905   -0.8364 C.3       1 <0>        -0.1572
     12 C9          3.1963   -8.6353   -1.0172 C.3       1 <0>        -0.0107
     13 N2          4.3822   -7.8112   -0.7548 N.4       1 <0>        -0.3723
     14 C10         4.3754   -7.3590    0.6416 C.3       1 <0>        -0.0049
     15 C11         3.1578   -6.4651    0.8863 C.3       1 <0>        -0.1555
     16 C12         5.5930   -8.6044   -1.0052 C.3       1 <0>         0.0083
     17 H1          5.6176   -9.4549   -0.3239 H         1 <0>         0.1601
     18 C13         6.8298   -7.7329   -0.7777 C.3       1 <0>        -0.1795
     19 C14         5.5831   -9.1007   -2.4281 C.2       1 <0>         0.5027
     20 O2          5.0152   -8.4625   -3.2890 O.2       1 <0>        -0.5017
     21 N3          6.2053  -10.2538   -2.7439 N.am      1 <0>        -0.6397
     22 C15         6.2848  -10.6633   -4.0814 C.ar      1 <0>         0.1219
     23 C16         6.4009   -9.7179   -5.0915 C.ar      1 <0>        -0.1075
     24 C17         6.4784  -10.1211   -6.4103 C.ar      1 <0>        -0.0944
     25 C18         6.4415  -11.4704   -6.7299 C.ar      1 <0>         0.0564
     26 C19         6.3278  -12.4193   -5.7207 C.ar      1 <0>         0.0733
     27 C20         6.2534  -12.0142   -4.3968 C.ar      1 <0>        -0.1276
     28 O3          6.2978  -13.7481   -6.0142 O.3       1 <0>        -0.3036
     29 C21         6.0045  -14.1015   -7.3702 C.3       1 <0>         0.0198
     30 C22         6.8538  -13.2161   -8.2920 C.3       1 <0>         0.0182
     31 O4          6.5154  -11.8486   -8.0363 O.3       1 <0>        -0.3024
     32 H2         -3.5257   -1.9556    1.2103 H         1 <0>         0.0770
     33 H3         -4.9840   -2.8334    0.6895 H         1 <0>         0.0889
     34 H4         -4.6184   -2.6647    2.4233 H         1 <0>         0.0891
     35 H5         -4.8891   -5.5172    1.8340 H         1 <0>         0.1431
     36 H6         -3.2708   -7.4113    1.6783 H         1 <0>         0.1507
     37 H7          0.8072   -5.4301    0.6487 H         1 <0>         0.4057
     38 H8          1.8090   -8.0971    1.2953 H         1 <0>         0.1094
     39 H9          1.0538   -8.4046   -1.0299 H         1 <0>         0.1198
     40 H10         1.9532   -6.9523   -1.5329 H         1 <0>         0.0944
     41 H11         3.1752   -9.4733   -0.3205 H         1 <0>         0.1333
     42 H12         3.2363   -9.0140   -2.0385 H         1 <0>         0.1376
     43 H13         4.3292   -8.2242    1.3030 H         1 <0>         0.1370
     44 H14         5.2860   -6.7955    0.8450 H         1 <0>         0.1426
     45 H15         3.2031   -5.5994    0.2256 H         1 <0>         0.0978
     46 H16         3.1536   -6.1319    1.9241 H         1 <0>         0.1246
     47 H17         6.8053   -6.8824   -1.4590 H         1 <0>         0.0925
     48 H18         6.8370   -7.3739    0.2515 H         1 <0>         0.1006
     49 H19         7.7282   -8.3215   -0.9635 H         1 <0>         0.1131
     50 H20         6.5980  -10.8002   -2.0452 H         1 <0>         0.4196
     51 H21         6.4301   -8.6665   -4.8460 H         1 <0>         0.1425
     52 H22         6.5677   -9.3840   -7.1947 H         1 <0>         0.1450
     53 H23         6.1673  -12.7502   -3.6111 H         1 <0>         0.1420
     54 H24         6.2508  -15.1499   -7.5383 H         1 <0>         0.1300
     55 H25         4.9465  -13.9349   -7.5729 H         1 <0>         0.0828
     56 H26         7.9117  -13.3779   -8.0849 H         1 <0>         0.0832
     57 H27         6.6412  -13.4589   -9.3331 H         1 <0>         0.1297
     58 H28         4.3754   -7.0092   -1.3670 H         1 <0>         0.4309
@<TRIPOS>BOND
     1    1    2 1
     2    1   32 1
     3    1   33 1
     4    1   34 1
     5    2    6 1
     6    2    3 2
     7    3    4 1
     8    3   35 1
     9    4    5 2
    10    4   36 1
    11    5    6 1
    12    5    7 1
    13    7    8 2
    14    7    9 am
    15    9   10 1
    16    9   37 1
    17   10   15 1
    18   10   11 1
    19   10   38 1
    20   11   12 1
    21   11   39 1
    22   11   40 1
    23   12   13 1
    24   12   41 1
    25   12   42 1
    26   13   14 1
    27   13   16 1
    28   13   58 1
    29   14   15 1
    30   14   43 1
    31   14   44 1
    32   15   45 1
    33   15   46 1
    34   16   17 1
    35   16   18 1
    36   16   19 1
    37   18   47 1
    38   18   48 1
    39   18   49 1
    40   19   20 2
    41   19   21 am
    42   21   22 1
    43   21   50 1
    44   22   27 ar
    45   22   23 ar
    46   23   24 ar
    47   23   51 1
    48   24   25 ar
    49   24   52 1
    50   25   31 1
    51   25   26 ar
    52   26   27 ar
    53   26   28 1
    54   27   53 1
    55   28   29 1
    56   29   30 1
    57   29   54 1
    58   29   55 1
    59   30   31 1
    60   30   56 1
    61   30   57 1
@<TRIPOS>MOLECULE
ZINC64430510
   59    61     0     0     0
SMALL
USER_CHARGES

@<TRIPOS>ATOM
      1 C1          0.5993   -1.0315    1.5135 C.3       1 <0>        -0.1844
      2 C2         -0.4210    0.1081    1.4761 C.3       1 <0>         0.1190
      3 C3          0.0539    1.1860    0.4997 C.3       1 <0>        -0.1850
      4 N1         -1.7181   -0.4120    1.0363 N.am      1 <0>        -0.5365
      5 C4         -1.8177   -1.1141   -0.1700 C.ar      1 <0>         0.1481
      6 C5         -0.7243   -1.1913   -1.0225 C.ar      1 <0>        -0.1669
      7 C6         -0.8257   -1.8855   -2.2122 C.ar      1 <0>        -0.0977
      8 C7         -2.0145   -2.5032   -2.5548 C.ar      1 <0>        -0.1387
      9 C8         -3.1052   -2.4282   -1.7080 C.ar      1 <0>        -0.0998
     10 C9         -3.0086   -1.7400   -0.5144 C.ar      1 <0>        -0.1673
     11 C10        -2.8153   -0.2142    1.7935 C.2       1 <0>         0.5223
     12 O1         -3.8741   -0.7081    1.4677 O.2       1 <0>        -0.5056
     13 C11        -2.7266    0.6205    3.0451 C.3       1 <0>         0.0571
     14 O2         -3.9843    0.5974    3.7231 O.3       1 <0>        -0.2066
     15 N2         -4.0080    1.3555    4.9189 N.2       1 <0>        -0.3801
     16 C12        -5.0950    1.4152    5.6292 C.2       1 <0>         0.4037
     17 C13        -6.2599    0.5718    5.2731 C.ar      1 <0>         0.0673
     18 C14        -6.0842   -0.6718    4.6538 C.ar      1 <0>        -0.1335
     19 C15        -7.1926   -1.4280    4.3382 C.ar      1 <0>         0.1571
     20 N3         -8.4098   -0.9965    4.6107 N.ar      1 <0>        -0.5033
     21 C16        -8.6240    0.1721    5.1950 C.ar      1 <0>         0.4494
     22 C17        -7.5605    0.9931    5.5512 C.ar      1 <0>        -0.1857
     23 N4         -9.9265    0.5800    5.4601 N.pl3     1 <0>        -0.5838
     24 C18       -11.0555   -0.3360    5.2481 C.3       1 <0>         0.0962
     25 C19       -11.8759   -0.4145    6.5394 C.3       1 <0>        -0.1372
     26 C20       -12.2836    0.9974    6.9668 C.3       1 <0>        -0.1281
     27 C21       -11.0299    1.8312    7.2409 C.3       1 <0>        -0.1404
     28 C22       -10.1994    1.9331    5.9633 C.3       1 <0>         0.1073
     29 N5         -5.1642    2.2672    6.7187 N.pl3     1 <0>        -0.8197
     30 H1          1.5894   -0.6260    1.7218 H         1 <0>         0.0803
     31 H2          0.3247   -1.7395    2.2954 H         1 <0>         0.0636
     32 H3          0.6106   -1.5408    0.5498 H         1 <0>         0.0824
     33 H4         -0.5212    0.5389    2.4723 H         1 <0>         0.1008
     34 H5          0.0116    0.7984   -0.5182 H         1 <0>         0.0801
     35 H6         -0.5911    2.0608    0.5824 H         1 <0>         0.0635
     36 H7          1.0795    1.4668    0.7392 H         1 <0>         0.0805
     37 H8          0.2044   -0.7088   -0.7557 H         1 <0>         0.1439
     38 H9          0.0242   -1.9456   -2.8759 H         1 <0>         0.1277
     39 H10        -2.0914   -3.0451   -3.4858 H         1 <0>         0.1230
     40 H11        -4.0323   -2.9117   -1.9784 H         1 <0>         0.1239
     41 H12        -3.8595   -1.6853    0.1484 H         1 <0>         0.1779
     42 H13        -1.9542    0.2149    3.6984 H         1 <0>         0.0966
     43 H14        -2.4757    1.6475    2.7798 H         1 <0>         0.0990
     44 H15        -5.0925   -1.0338    4.4259 H         1 <0>         0.1885
     45 H16        -7.0631   -2.3879    3.8605 H         1 <0>         0.2124
     46 H17        -7.7383    1.9439    6.0316 H         1 <0>         0.1806
     47 H18       -11.6827    0.0383    4.4390 H         1 <0>         0.1012
     48 H19       -10.6794   -1.3268    4.9933 H         1 <0>         0.0778
     49 H20       -12.7694   -1.0146    6.3669 H         1 <0>         0.0944
     50 H21       -11.2751   -0.8731    7.3248 H         1 <0>         0.0746
     51 H22       -12.8635    1.4645    6.1707 H         1 <0>         0.0741
     52 H23       -12.8883    0.9424    7.8720 H         1 <0>         0.0820
     53 H24       -11.3212    2.8294    7.5677 H         1 <0>         0.0958
     54 H25       -10.4371    1.3514    8.0197 H         1 <0>         0.0750
     55 H26        -9.2585    2.4390    6.1803 H         1 <0>         0.0980
     56 H27       -10.7552    2.4965    5.2138 H         1 <0>         0.0973
     57 H28        -4.4016    2.8194    6.9518 H         1 <0>         0.4223
     58 H29        -5.9754    2.3118    7.2487 H         1 <0>         0.4158
     59 H30        -9.1697   -1.5516    4.3756 H         1 <0>         0.4397
@<TRIPOS>BOND
     1    1    2 1
     2    1   30 1
     3    1   31 1
     4    1   32 1
     5    2    3 1
     6    2    4 1
     7    2   33 1
     8    3   34 1
     9    3   35 1
    10    3   36 1
    11    4    5 1
    12    4   11 am
    13    5   10 ar
    14    5    6 ar
    15    6    7 ar
    16    6   37 1
    17    7    8 ar
    18    7   38 1
    19    8    9 ar
    20    8   39 1
    21    9   10 ar
    22    9   40 1
    23   10   41 1
    24   11   12 2
    25   11   13 1
    26   13   14 1
    27   13   42 1
    28   13   43 1
    29   14   15 1
    30   15   16 2
    31   16   17 1
    32   16   29 1
    33   17   22 ar
    34   17   18 ar
    35   18   19 ar
    36   18   44 1
    37   19   20 ar
    38   19   45 1
    39   20   21 ar
    40   20   59 1
    41   21   22 ar
    42   21   23 1
    43   22   46 1
    44   23   28 1
    45   23   24 1
    46   24   25 1
    47   24   47 1
    48   24   48 1
    49   25   26 1
    50   25   49 1
    51   25   50 1
    52   26   27 1
    53   26   51 1
    54   26   52 1
    55   27   28 1
    56   27   53 1
    57   27   54 1
    58   28   55 1
    59   28   56 1
    60   29   57 1
    61   29   58 1
@<TRIPOS>MOLECULE
ZINC06149231
   68    73     0     0     0
SMALL
USER_CHARGES
[[1-(1,1-dimethylpropyl)tetrazol-5-yl]-[4-(4-fluorophenyl)-3,6-dihydro-2H-pyridin-1-yl]-methyl]BLAHone
@<TRIPOS>ATOM
      1 C1          5.4578   -1.0514    0.0988 C.3       1 <0>        -0.1576
      2 C2          3.9301   -0.9687    0.0895 C.3       1 <0>        -0.1220
      3 C3          3.4993    0.4960   -0.0107 C.3       1 <0>         0.1535
      4 C4          4.0507    1.1026   -1.3025 C.3       1 <0>        -0.1758
      5 C5          4.0447    1.2713    1.1903 C.3       1 <0>        -0.1719
      6 N1          2.0364    0.5752   -0.0196 N.pl3     1 <0>        -0.2714
      7 C6          1.2971    1.6931   -0.1436 C.2       1 <0>         0.1114
      8 N2          0.0413    1.3200   -0.1031 N.2       1 <0>        -0.2412
      9 N3          0.0109    0.0397    0.0384 N.2       1 <0>        -0.0588
     10 N4          1.2148   -0.4135    0.0892 N.2       1 <0>        -0.0526
     11 C7          1.8130    3.1004   -0.2996 C.3       1 <0>         0.2079
     12 H1          2.8898    3.1135   -0.1306 H         1 <0>         0.1644
     13 C8          1.5172    3.5923   -1.6930 C.2       1 <0>        -0.2817
     14 C9          2.5385    3.8725   -2.5422 C.2       1 <0>         0.0762
     15 C10         2.2188    4.3440   -3.8889 C.ar      1 <0>        -0.1501
     16 C11         3.2318    4.6431   -4.8088 C.ar      1 <0>        -0.0312
     17 C12         2.9000    5.0923   -6.0677 C.ar      1 <0>         0.0148
     18 C13         1.5561    5.2499   -6.4295 C.ar      1 <0>         0.1302
     19 C14         0.5496    4.9555   -5.5281 C.ar      1 <0>        -0.1600
     20 C15         0.8678    4.5015   -4.2544 C.ar      1 <0>         0.2253
     21 N5         -0.1236    4.2031   -3.3416 N.am      1 <0>        -0.6142
     22 H2         -1.0827    4.3143   -3.6020 H         1 <0>         0.4376
     23 C16         0.1813    3.7652   -2.1076 C.2       1 <0>         0.5455
     24 O1         -0.7206    3.5117   -1.3274 O.2       1 <0>        -0.5143
     25 O2          1.5049    5.7032   -7.7154 O.3       1 <0>        -0.2920
     26 C17         2.8214    6.2121   -7.9982 C.3       1 <0>         0.2098
     27 O3          3.6800    5.4482   -7.1312 O.3       1 <0>        -0.2960
     28 C18         1.7177    5.3341    0.6367 C.3       1 <0>        -0.0033
     29 C19         0.7982    6.2676    1.4283 C.3       1 <0>        -0.1114
     30 C20         0.4930    5.6607    2.7694 C.2       1 <0>        -0.0443
     31 C21         0.6968    4.3895    3.0363 C.2       1 <0>        -0.1772
     32 C22         1.2595    3.4221    2.0349 C.3       1 <0>         0.0352
     33 C23        -0.0583    6.5285    3.8312 C.ar      1 <0>        -0.0930
     34 C24        -1.3176    7.1097    3.6770 C.ar      1 <0>        -0.0691
     35 C25        -1.8298    7.9142    4.6735 C.ar      1 <0>        -0.1504
     36 C26        -1.0912    8.1552    5.8209 C.ar      1 <0>         0.1187
     37 C27         0.1622    7.5851    5.9766 C.ar      1 <0>        -0.1513
     38 C28         0.6811    6.7742    4.9889 C.ar      1 <0>        -0.0690
     39 F1         -1.5951    8.9485    6.7915 F         1 <0>        -0.1301
     40 H3          5.7647   -2.0949    0.1702 H         1 <0>         0.0751
     41 H4          5.8507   -0.6193   -0.8215 H         1 <0>         0.0650
     42 H5          5.8464   -0.4991    0.9544 H         1 <0>         0.0649
     43 H6          3.5372   -1.4008    1.0098 H         1 <0>         0.0874
     44 H7          3.5415   -1.5210   -0.7661 H         1 <0>         0.0857
     45 H8          3.7438    2.1460   -1.3739 H         1 <0>         0.0564
     46 H9          5.1391    1.0436   -1.2959 H         1 <0>         0.1111
     47 H10         3.6621    0.5502   -2.1581 H         1 <0>         0.0831
     48 H11         3.7313    0.7811    2.1120 H         1 <0>         0.0858
     49 H12         5.1334    1.2949    1.1434 H         1 <0>         0.1112
     50 H13         3.6580    2.2902    1.1710 H         1 <0>         0.0517
     51 H14         3.5650    3.7463   -2.2310 H         1 <0>         0.1622
     52 H15         4.2687    4.5215   -4.5322 H         1 <0>         0.1582
     53 H16        -0.4844    5.0787   -5.8145 H         1 <0>         0.1582
     54 H17         2.8811    7.2735   -7.7575 H         1 <0>         0.1001
     55 H18         3.0817    6.0404   -9.0426 H         1 <0>         0.1467
     56 H19         2.7112    5.3320    1.0851 H         1 <0>         0.1389
     57 H20         1.7837    5.6712   -0.3978 H         1 <0>         0.1359
     58 H21         1.2920    7.2291    1.5692 H         1 <0>         0.1309
     59 H22        -0.1305    6.4149    0.8770 H         1 <0>         0.1092
     60 H23         0.4479    4.0240    4.0217 H         1 <0>         0.1554
     61 H24         0.7050    2.4851    2.0872 H         1 <0>         0.1328
     62 H25         2.3076    3.2321    2.2661 H         1 <0>         0.1375
     63 H26        -1.8921    6.9261    2.7811 H         1 <0>         0.1356
     64 H27        -2.8065    8.3603    4.5574 H         1 <0>         0.1437
     65 H28         0.7336    7.7759    6.8729 H         1 <0>         0.1436
     66 H29         1.6578    6.3298    5.1115 H         1 <0>         0.1364
     67 N6          1.1294    3.9797    0.6760 N.4       1 <0>        -0.3917
     68 H30         0.1339    4.0393    0.4318 H         1 <0>         0.4484
@<TRIPOS>BOND
     1    1    2 1
     2    1   40 1
     3    1   41 1
     4    1   42 1
     5    2    3 1
     6    2   43 1
     7    2   44 1
     8    3    4 1
     9    3    5 1
    10    3    6 1
    11    4   45 1
    12    4   46 1
    13    4   47 1
    14    5   48 1
    15    5   49 1
    16    5   50 1
    17    6   10 1
    18    6    7 1
    19    7    8 2
    20    7   11 1
    21    8    9 1
    22    9   10 2
    23   11   12 1
    24   11   13 1
    25   11   67 1
    26   13   23 1
    27   13   14 2
    28   14   15 1
    29   14   51 1
    30   15   20 ar
    31   15   16 ar
    32   16   17 ar
    33   16   52 1
    34   17   27 1
    35   17   18 ar
    36   18   19 ar
    37   18   25 1
    38   19   20 ar
    39   19   53 1
    40   20   21 1
    41   21   22 1
    42   21   23 am
    43   23   24 2
    44   25   26 1
    45   26   27 1
    46   26   54 1
    47   26   55 1
    48   28   29 1
    49   28   56 1
    50   28   57 1
    51   28   67 1
    52   29   30 1
    53   29   58 1
    54   29   59 1
    55   30   31 2
    56   30   33 1
    57   31   32 1
    58   31   60 1
    59   32   61 1
    60   32   62 1
    61   32   67 1
    62   33   38 ar
    63   33   34 ar
    64   34   35 ar
    65   34   63 1
    66   35   36 ar
    67   35   64 1
    68   36   37 ar
    69   36   39 1
    70   37   38 ar
    71   37   65 1
    72   38   66 1
    73   67   68 1
@<TRIPOS>MOLECULE
ZINC06280597
   72    76     0     0     0
SMALL
USER_CHARGES
3-[(S)-(1-tert-butyltetrazol-5-yl)-[4-(5-chloro-2-methyl-phenyl)piperazin-1-yl]methyl]-6,8-dimethyl-1H-quinolin-2-one
@<TRIPOS>ATOM
      1 C1         -8.6025    3.1853   -1.4805 C.3       1 <0>        -0.1117
      2 C2         -8.1767    2.9907   -2.9129 C.ar      1 <0>        -0.0408
      3 C3         -9.0474    3.2973   -3.9405 C.ar      1 <0>        -0.1000
      4 C4         -8.6582    3.1194   -5.2550 C.ar      1 <0>        -0.0925
      5 C5         -7.3951    2.6335   -5.5461 C.ar      1 <0>        -0.0320
      6 C6         -6.5179    2.3290   -4.5226 C.ar      1 <0>        -0.1339
      7 C7         -6.9086    2.5025   -3.2009 C.ar      1 <0>         0.0726
      8 N1         -6.0261    2.1921   -2.1638 N.pl3     1 <0>        -0.4870
      9 C8         -5.6422    0.7742   -2.2055 C.3       1 <0>         0.0323
     10 C9         -4.7406    0.4572   -1.0101 C.3       1 <0>        -0.0030
     11 C10        -3.9376    2.7405   -1.0101 C.3       1 <0>        -0.0126
     12 C11        -4.8391    3.0576   -2.2055 C.3       1 <0>         0.0345
     13 C12        -2.6254    0.9962    0.0389 C.3       1 <0>         0.2066
     14 H1         -2.2868   -0.0343   -0.0683 H         1 <0>         0.1647
     15 C13        -1.4387    1.9233   -0.0170 C.2       1 <0>        -0.2856
     16 C14        -1.1632    2.7322    1.0359 C.2       1 <0>         0.0860
     17 C15         0.0005    3.6168    0.9525 C.ar      1 <0>        -0.1425
     18 C16         0.3381    4.4698    2.0085 C.ar      1 <0>        -0.0508
     19 C17         1.4305    5.2826    1.8997 C.ar      1 <0>        -0.0945
     20 C18         2.2084    5.2705    0.7497 C.ar      1 <0>        -0.0398
     21 C19         1.8943    4.4387   -0.3031 C.ar      1 <0>        -0.1194
     22 C20         0.7867    3.6016   -0.2149 C.ar      1 <0>         0.1907
     23 N2          0.4491    2.7597   -1.2531 N.am      1 <0>        -0.6100
     24 H2          0.9922    2.7503   -2.0567 H         1 <0>         0.4283
     25 C21        -0.6218    1.9512   -1.1676 C.2       1 <0>         0.5558
     26 O1         -0.8905    1.2200   -2.1049 O.2       1 <0>        -0.5545
     27 C22         2.7478    4.4354   -1.5452 C.3       1 <0>        -0.1229
     28 C23         1.7943    6.2012    3.0377 C.3       1 <0>        -0.1224
     29 C24        -3.3281    1.1589    1.3621 C.2       1 <0>         0.1199
     30 N3         -4.0523    2.1829    1.7429 N.2       1 <0>        -0.2772
     31 N4         -4.4809    1.9460    2.9346 N.2       1 <0>        -0.0497
     32 N5         -4.0490    0.7974    3.3239 N.2       1 <0>        -0.0452
     33 N6         -3.3388    0.2784    2.3800 N.pl3     1 <0>        -0.2639
     34 C25        -2.6673   -1.0233    2.4117 C.3       1 <0>         0.1506
     35 C26        -1.1724   -0.8324    2.1473 C.3       1 <0>        -0.1734
     36 C27        -2.8642   -1.6654    3.7863 C.3       1 <0>        -0.1557
     37 C28        -3.2639   -1.9313    1.3344 C.3       1 <0>        -0.1710
     38 Cl1        -6.9104    2.4122   -7.1984 Cl        1 <0>        -0.0570
     39 H3         -8.3404    4.1927   -1.1572 H         1 <0>         0.0760
     40 H4         -9.6806    3.0468   -1.3999 H         1 <0>         0.0690
     41 H5         -8.0944    2.4570   -0.8483 H         1 <0>         0.0772
     42 H6        -10.0334    3.6769   -3.7167 H         1 <0>         0.1426
     43 H7         -9.3408    3.3602   -6.0565 H         1 <0>         0.1412
     44 H8         -5.5310    1.9538   -4.7498 H         1 <0>         0.1289
     45 H9         -5.1039    0.5704   -3.1312 H         1 <0>         0.0696
     46 H10        -6.5370    0.1534   -2.1609 H         1 <0>         0.1291
     47 H11        -4.4310   -0.5870   -1.0549 H         1 <0>         0.1349
     48 H12        -5.2880    0.6351   -0.0845 H         1 <0>         0.1343
     49 H13        -4.4758    2.9444   -0.0845 H         1 <0>         0.1666
     50 H14        -3.0426    3.3611   -1.0549 H         1 <0>         0.1285
     51 H15        -4.2917    2.8797   -3.1311 H         1 <0>         0.0645
     52 H16        -5.1487    4.1018   -2.1607 H         1 <0>         0.1284
     53 H17        -1.7859    2.7210    1.9182 H         1 <0>         0.1467
     54 H18        -0.2622    4.4854    2.9062 H         1 <0>         0.1414
     55 H19         3.0684    5.9199    0.6795 H         1 <0>         0.1447
     56 H20         2.3642    5.1716   -2.2515 H         1 <0>         0.0835
     57 H21         3.7750    4.6864   -1.2808 H         1 <0>         0.0868
     58 H22         2.7215    3.4459   -2.0015 H         1 <0>         0.0653
     59 H23         1.2925    7.1597    2.9055 H         1 <0>         0.0805
     60 H24         1.4800    5.7535    3.9805 H         1 <0>         0.0737
     61 H25         2.8733    6.3545    3.0501 H         1 <0>         0.0759
     62 H26        -0.7474   -0.1855    2.9147 H         1 <0>         0.0805
     63 H27        -0.6728   -1.8009    2.1708 H         1 <0>         0.1085
     64 H28        -1.0321   -0.3749    1.1679 H         1 <0>         0.0644
     65 H29        -3.9291   -1.8014    3.9747 H         1 <0>         0.0821
     66 H30        -2.3645   -2.6339    3.8099 H         1 <0>         0.0964
     67 H31        -2.4391   -1.0185    4.5538 H         1 <0>         0.0803
     68 H32        -3.0339   -1.5257    0.3492 H         1 <0>         0.0583
     69 H33        -2.8377   -2.9305    1.4246 H         1 <0>         0.1109
     70 H34        -4.3451   -1.9846    1.4621 H         1 <0>         0.0821
     71 N7         -3.5410    1.3183   -1.0764 N.4       1 <0>        -0.3877
     72 H35        -3.0565    1.1480   -1.9656 H         1 <0>         0.4419
@<TRIPOS>BOND
     1    1    2 1
     2    1   39 1
     3    1   40 1
     4    1   41 1
     5    2    7 ar
     6    2    3 ar
     7    3    4 ar
     8    3   42 1
     9    4    5 ar
    10    4   43 1
    11    5    6 ar
    12    5   38 1
    13    6    7 ar
    14    6   44 1
    15    7    8 1
    16    8   12 1
    17    8    9 1
    18    9   10 1
    19    9   45 1
    20    9   46 1
    21   10   47 1
    22   10   48 1
    23   10   71 1
    24   11   12 1
    25   11   49 1
    26   11   50 1
    27   11   71 1
    28   12   51 1
    29   12   52 1
    30   13   14 1
    31   13   15 1
    32   13   29 1
    33   13   71 1
    34   15   25 1
    35   15   16 2
    36   16   17 1
    37   16   53 1
    38   17   22 ar
    39   17   18 ar
    40   18   19 ar
    41   18   54 1
    42   19   20 ar
    43   19   28 1
    44   20   21 ar
    45   20   55 1
    46   21   22 ar
    47   21   27 1
    48   22   23 1
    49   23   24 1
    50   23   25 am
    51   25   26 2
    52   27   56 1
    53   27   57 1
    54   27   58 1
    55   28   59 1
    56   28   60 1
    57   28   61 1
    58   29   33 1
    59   29   30 2
    60   30   31 1
    61   31   32 2
    62   32   33 1
    63   33   34 1
    64   34   35 1
    65   34   36 1
    66   34   37 1
    67   35   62 1
    68   35   63 1
    69   35   64 1
    70   36   65 1
    71   36   66 1
    72   36   67 1
    73   37   68 1
    74   37   69 1
    75   37   70 1
    76   71   72 1
@<TRIPOS>MOLECULE
ZINC35486172
   61    64     0     0     0
SMALL
USER_CHARGES

@<TRIPOS>ATOM
      1 C1          0.1284    1.4492    0.2097 C.3       1 <0>        -0.1870
      2 C2          0.0190   -0.0668    0.0349 C.3       1 <0>        -0.0190
      3 N1          0.5762   -0.4508   -1.2689 N.4       1 <0>        -0.3824
      4 C3          2.0192   -0.1759   -1.2850 C.3       1 <0>        -0.0141
      5 C4          2.5730   -0.4396   -2.6866 C.3       1 <0>        -0.1888
      6 C5          0.3482   -1.8842   -1.4959 C.3       1 <0>        -0.0393
      7 C6         -1.1545   -2.1508   -1.6035 C.3       1 <0>         0.1169
      8 N2         -1.3818   -3.5802   -1.8298 N.am      1 <0>        -0.5998
      9 C7         -1.4575   -4.2472   -3.1400 C.3       1 <0>         0.2375
     10 H1         -0.5174   -4.1266   -3.6782 H         1 <0>         0.1276
     11 C8         -1.7026   -5.6913   -2.8483 C.2       1 <0>        -0.2497
     12 C9         -1.8781   -6.8413   -3.7417 C.2       1 <0>         0.4573
     13 O1         -1.6700   -6.7922   -4.9411 O.2       1 <0>        -0.4304
     14 C10        -2.3329   -8.0710   -3.0450 C.ar      1 <0>        -0.2063
     15 C11        -2.7354   -9.1889   -3.7753 C.ar      1 <0>        -0.0351
     16 C12        -3.1564  -10.3119   -3.1190 C.ar      1 <0>        -0.0975
     17 C13        -3.1846  -10.3411   -1.7317 C.ar      1 <0>        -0.0506
     18 C14        -2.7897   -9.2472   -0.9949 C.ar      1 <0>        -0.1253
     19 C15        -2.3531   -8.0904   -1.6408 C.ar      1 <0>         0.1288
     20 O2         -1.9600   -7.0312   -0.8974 O.3       1 <0>        -0.1772
     21 C16        -1.7566   -5.8388   -1.4915 C.2       1 <0>         0.0944
     22 C17        -1.5526   -4.5165   -0.8743 C.2       1 <0>         0.5781
     23 O3         -1.5419   -4.3008    0.3213 O.2       1 <0>        -0.4687
     24 C18        -3.5919  -11.5219   -3.9046 C.3       1 <0>        -0.1201
     25 C19        -2.5951   -3.6782   -3.9481 C.ar      1 <0>        -0.0790
     26 C20        -2.4381   -3.4648   -5.3053 C.ar      1 <0>        -0.1548
     27 C21        -3.4827   -2.9417   -6.0500 C.ar      1 <0>         0.1196
     28 C22        -4.6893   -2.6323   -5.4295 C.ar      1 <0>         0.1209
     29 C23        -4.8406   -2.8489   -4.0689 C.ar      1 <0>        -0.0854
     30 C24        -3.7949   -3.3760   -3.3321 C.ar      1 <0>        -0.0987
     31 Br1        -6.4782   -2.4301   -3.2210 Br        1 <0>        -0.0104
     32 O4         -5.7175   -2.1182   -6.1564 O.3       1 <0>        -0.4714
     33 O5         -3.3292   -2.7307   -7.3847 O.3       1 <0>        -0.2967
     34 C25        -2.0634   -3.0710   -7.9539 C.3       1 <0>         0.0213
     35 H2          1.1790    1.7329    0.2727 H         1 <0>         0.0817
     36 H3         -0.3320    1.9475   -0.6434 H         1 <0>         0.0809
     37 H4         -0.3838    1.7474    1.1245 H         1 <0>         0.1081
     38 H5          0.5754   -0.5652    0.8288 H         1 <0>         0.1335
     39 H6         -1.0286   -0.3635    0.0840 H         1 <0>         0.1317
     40 H7          2.1936    0.8657   -1.0153 H         1 <0>         0.1360
     41 H8          2.5208   -0.8258   -0.5679 H         1 <0>         0.1308
     42 H9          3.6177   -0.1312   -2.7284 H         1 <0>         0.1079
     43 H10         2.4989   -1.5034   -2.9124 H         1 <0>         0.0792
     44 H11         1.9971    0.1280   -3.4175 H         1 <0>         0.0808
     45 H12         0.8383   -2.1880   -2.4209 H         1 <0>         0.1390
     46 H13         0.7596   -2.4539   -0.6626 H         1 <0>         0.1384
     47 H14        -1.6446   -1.8469   -0.6785 H         1 <0>         0.1160
     48 H15        -1.5658   -1.5811   -2.4368 H         1 <0>         0.1149
     49 H16        -2.7148   -9.1675   -4.8549 H         1 <0>         0.1466
     50 H17        -3.5208  -11.2329   -1.2238 H         1 <0>         0.1480
     51 H18        -2.8177   -9.2847    0.0840 H         1 <0>         0.1507
     52 H19        -2.7325  -12.1684   -4.0822 H         1 <0>         0.0798
     53 H20        -4.3474  -12.0688   -3.3404 H         1 <0>         0.0756
     54 H21        -4.0108  -11.2039   -4.8593 H         1 <0>         0.0737
     55 H22        -1.5008   -3.7057   -5.7848 H         1 <0>         0.1461
     56 H23        -3.9150   -3.5479   -2.2726 H         1 <0>         0.1330
     57 H24        -6.3082   -2.7867   -6.5296 H         1 <0>         0.3995
     58 H25        -1.2796   -2.4861   -7.4728 H         1 <0>         0.0567
     59 H26        -1.8700   -4.1328   -7.8012 H         1 <0>         0.0637
     60 H27        -2.0752   -2.8538   -9.0220 H         1 <0>         0.1100
     61 H28         0.1244    0.0811   -1.9976 H         1 <0>         0.4235
@<TRIPOS>BOND
     1    1    2 1
     2    1   35 1
     3    1   36 1
     4    1   37 1
     5    2    3 1
     6    2   38 1
     7    2   39 1
     8    3    4 1
     9    3    6 1
    10    3   61 1
    11    4    5 1
    12    4   40 1
    13    4   41 1
    14    5   42 1
    15    5   43 1
    16    5   44 1
    17    6    7 1
    18    6   45 1
    19    6   46 1
    20    7    8 1
    21    7   47 1
    22    7   48 1
    23    8   22 am
    24    8    9 1
    25    9   10 1
    26    9   11 1
    27    9   25 1
    28   11   21 2
    29   11   12 1
    30   12   13 2
    31   12   14 1
    32   14   19 ar
    33   14   15 ar
    34   15   16 ar
    35   15   49 1
    36   16   17 ar
    37   16   24 1
    38   17   18 ar
    39   17   50 1
    40   18   19 ar
    41   18   51 1
    42   19   20 1
    43   20   21 1
    44   21   22 1
    45   22   23 2
    46   24   52 1
    47   24   53 1
    48   24   54 1
    49   25   30 ar
    50   25   26 ar
    51   26   27 ar
    52   26   55 1
    53   27   28 ar
    54   27   33 1
    55   28   29 ar
    56   28   32 1
    57   29   30 ar
    58   29   31 1
    59   30   56 1
    60   32   57 1
    61   33   34 1
    62   34   58 1
    63   34   59 1
    64   34   60 1
@<TRIPOS>MOLECULE
ZINC40426483
   75    78     0     0     0
SMALL
USER_CHARGES

@<TRIPOS>ATOM
      1 C1         -0.5627   -0.4910    2.6848 C.3       1 <0>        -0.1468
      2 C2         -0.8694   -0.4979    1.1859 C.3       1 <0>        -0.0916
      3 C3          0.0975   -1.4447    0.4719 C.3       1 <0>        -0.1527
      4 C4         -2.3066   -0.9723    0.9615 C.3       1 <0>        -0.1395
      5 C5         -2.6608   -0.8425   -0.5213 C.3       1 <0>         0.1659
      6 H1         -1.9573   -1.4258   -1.1153 H         1 <0>         0.1198
      7 C6         -4.0588   -1.3565   -0.7506 C.2       1 <0>         0.5080
      8 O1         -4.9094   -0.6194   -1.2023 O.2       1 <0>        -0.5001
      9 N1         -4.3638   -2.6353   -0.4537 N.am      1 <0>        -0.6152
     10 C7         -3.3363   -3.5256    0.0920 C.3       1 <0>         0.0640
     11 C8         -5.7228   -3.1349   -0.6766 C.3       1 <0>         0.1314
     12 C9         -6.3131   -3.6226    0.6497 C.3       1 <0>        -0.1583
     13 C10        -7.7007   -4.2157    0.3966 C.3       1 <0>        -0.0032
     14 N2         -7.5920   -5.3436   -0.5364 N.4       1 <0>        -0.3858
     15 C11        -7.0941   -4.8707   -1.8337 C.3       1 <0>        -0.0028
     16 C12        -5.6831   -4.3027   -1.6664 C.3       1 <0>        -0.1589
     17 C13        -8.9142   -5.9582   -0.7156 C.3       1 <0>        -0.0473
     18 N3         -2.5867    0.5653   -0.9197 N.am      1 <0>        -0.6094
     19 C14        -1.7857    1.1190   -2.0216 C.3       1 <0>         0.1458
     20 C15        -2.0693    2.6042   -2.0003 C.2       1 <0>         0.1760
     21 C16        -2.9343    2.8109   -0.9866 C.2       1 <0>        -0.2744
     22 C17        -3.2431    1.5918   -0.3493 C.2       1 <0>         0.5910
     23 O2         -4.0027    1.4825    0.5960 O.2       1 <0>        -0.4978
     24 C18        -3.3957    4.2317   -0.7327 C.3       1 <0>         0.2422
     25 H2         -4.4827    4.2513   -0.8114 H         1 <0>         0.0918
     26 N4         -2.8572    5.2762   -1.6204 N.am      1 <0>        -0.7083
     27 C19        -1.9979    4.9123   -2.5927 C.2       1 <0>         0.7110
     28 O3         -1.5477    5.7673   -3.3302 O.2       1 <0>        -0.5479
     29 N5         -1.6235    3.6388   -2.7723 N.am      1 <0>        -0.5277
     30 C20        -0.6841    3.3395   -3.8560 C.3       1 <0>         0.0707
     31 C21        -3.0299    4.5929    0.6839 C.ar      1 <0>        -0.0551
     32 C22        -1.7052    4.7901    1.0270 C.ar      1 <0>        -0.0990
     33 C23        -1.3697    5.1213    2.3262 C.ar      1 <0>        -0.0868
     34 C24        -2.3590    5.2560    3.2827 C.ar      1 <0>        -0.1119
     35 C25        -3.6834    5.0598    2.9395 C.ar      1 <0>        -0.0719
     36 C26        -4.0193    4.7326    1.6389 C.ar      1 <0>        -0.1560
     37 C27        -5.4638    4.5239    1.2635 C.3       1 <0>         0.4990
     38 F1         -6.2657    4.6595    2.4018 F         1 <0>        -0.1776
     39 F2         -5.8406    5.4771    0.3113 F         1 <0>        -0.1803
     40 F3         -5.6260    3.2413    0.7289 F         1 <0>        -0.1523
     41 H3          0.4852   -0.2343    2.8401 H         1 <0>         0.0590
     42 H4         -1.1946    0.2453    3.1815 H         1 <0>         0.0562
     43 H5         -0.7604   -1.4789    3.1007 H         1 <0>         0.0547
     44 H6         -0.7527    0.5095    0.7865 H         1 <0>         0.0722
     45 H7         -0.0191   -2.4522    0.8713 H         1 <0>         0.0574
     46 H8         -0.1209   -1.4497   -0.5959 H         1 <0>         0.0503
     47 H9          1.1214   -1.1068    0.6318 H         1 <0>         0.0616
     48 H10        -2.3969   -2.0147    1.2668 H         1 <0>         0.0885
     49 H11        -2.9877   -0.3602    1.5527 H         1 <0>         0.0925
     50 H12        -3.3420   -3.4631    1.1802 H         1 <0>         0.0697
     51 H13        -3.5442   -4.5509   -0.2141 H         1 <0>         0.0737
     52 H14        -2.3583   -3.2254   -0.2841 H         1 <0>         0.0834
     53 H15        -6.3434   -2.3353   -1.0810 H         1 <0>         0.1176
     54 H16        -5.6636   -4.3859    1.0784 H         1 <0>         0.0920
     55 H17        -6.3962   -2.7842    1.3412 H         1 <0>         0.1177
     56 H18        -8.1240   -4.5637    1.3389 H         1 <0>         0.1358
     57 H19        -8.3494   -3.4516   -0.0318 H         1 <0>         0.1321
     58 H20        -7.0695   -5.7022   -2.5380 H         1 <0>         0.1354
     59 H21        -7.7557   -4.0926   -2.2145 H         1 <0>         0.1318
     60 H22        -5.3159   -3.9505   -2.6304 H         1 <0>         0.1157
     61 H23        -5.0206   -5.0801   -1.2858 H         1 <0>         0.0926
     62 H24        -9.6070   -5.2189   -1.1175 H         1 <0>         0.1228
     63 H25        -8.8346   -6.7960   -1.4083 H         1 <0>         0.1247
     64 H26        -9.2820   -6.3157    0.2462 H         1 <0>         0.1250
     65 H27        -0.7255    0.9329   -1.8504 H         1 <0>         0.1133
     66 H28        -2.0987    0.6869   -2.9721 H         1 <0>         0.1102
     67 H29        -3.1153    6.2045   -1.5080 H         1 <0>         0.4376
     68 H30        -1.2393    3.1241   -4.7689 H         1 <0>         0.0756
     69 H31        -0.0335    4.1985   -4.0204 H         1 <0>         0.0998
     70 H32        -0.0806    2.4733   -3.5848 H         1 <0>         0.0837
     71 H33        -0.9325    4.6849    0.2799 H         1 <0>         0.1239
     72 H34        -0.3349    5.2746    2.5944 H         1 <0>         0.1339
     73 H35        -2.0968    5.5141    4.2981 H         1 <0>         0.1373
     74 H36        -4.4561    5.1647    3.6868 H         1 <0>         0.1405
     75 H37        -6.9530   -6.0286   -0.1614 H         1 <0>         0.4241
@<TRIPOS>BOND
     1    1    2 1
     2    1   41 1
     3    1   42 1
     4    1   43 1
     5    2    3 1
     6    2    4 1
     7    2   44 1
     8    3   45 1
     9    3   46 1
    10    3   47 1
    11    4    5 1
    12    4   48 1
    13    4   49 1
    14    5    6 1
    15    5    7 1
    16    5   18 1
    17    7    8 2
    18    7    9 am
    19    9   10 1
    20    9   11 1
    21   10   50 1
    22   10   51 1
    23   10   52 1
    24   11   16 1
    25   11   12 1
    26   11   53 1
    27   12   13 1
    28   12   54 1
    29   12   55 1
    30   13   14 1
    31   13   56 1
    32   13   57 1
    33   14   15 1
    34   14   17 1
    35   14   75 1
    36   15   16 1
    37   15   58 1
    38   15   59 1
    39   16   60 1
    40   16   61 1
    41   17   62 1
    42   17   63 1
    43   17   64 1
    44   18   22 am
    45   18   19 1
    46   19   20 1
    47   19   65 1
    48   19   66 1
    49   20   29 1
    50   20   21 2
    51   21   22 1
    52   21   24 1
    53   22   23 2
    54   24   25 1
    55   24   26 1
    56   24   31 1
    57   26   27 am
    58   26   67 1
    59   27   28 2
    60   27   29 am
    61   29   30 1
    62   30   68 1
    63   30   69 1
    64   30   70 1
    65   31   36 ar
    66   31   32 ar
    67   32   33 ar
    68   32   71 1
    69   33   34 ar
    70   33   72 1
    71   34   35 ar
    72   34   73 1
    73   35   36 ar
    74   35   74 1
    75   36   37 1
    76   37   38 1
    77   37   39 1
    78   37   40 1
@<TRIPOS>MOLECULE
ZINC63362077
   72    77     0     0     0
SMALL
USER_CHARGES

@<TRIPOS>ATOM
      1 C1          0.9736   -0.5765   -1.4574 C.3       1 <0>        -0.1664
      2 C2          1.0058   -1.9847   -0.8600 C.3       1 <0>         0.1271
      3 H1          1.7098   -2.6007   -1.4194 H         1 <0>         0.1373
      4 C3          1.4394   -1.9091    0.5813 C.2       1 <0>         0.5077
      5 O1          0.7041   -2.3116    1.4577 O.2       1 <0>        -0.5161
      6 N1          2.6445   -1.3942    0.8963 N.am      1 <0>        -0.7201
      7 C4          3.0660   -1.3207    2.2974 C.3       1 <0>         0.1209
      8 C5          4.4624   -0.7006    2.3780 C.3       1 <0>        -0.1226
      9 C6          4.9027   -0.6239    3.8413 C.3       1 <0>        -0.0015
     10 C7          6.3239   -0.1279    3.9129 C.ar      1 <0>        -0.0759
     11 C8          7.2697   -0.8410    4.6256 C.ar      1 <0>        -0.1133
     12 C9          8.5734   -0.3860    4.6913 C.ar      1 <0>        -0.1160
     13 C10         8.9314    0.7817    4.0439 C.ar      1 <0>        -0.1196
     14 C11         7.9858    1.4943    3.3304 C.ar      1 <0>        -0.1172
     15 C12         6.6831    1.0371    3.2612 C.ar      1 <0>        -0.1143
     16 C13         4.0012    0.3252    4.5880 C.ar      1 <0>        -0.0764
     17 C14         3.7829    1.5998    4.0994 C.ar      1 <0>        -0.1142
     18 C15         2.9560    2.4704    4.7843 C.ar      1 <0>        -0.1169
     19 C16         2.3470    2.0663    5.9577 C.ar      1 <0>        -0.1201
     20 C17         2.5646    0.7914    6.4458 C.ar      1 <0>        -0.1155
     21 C18         3.3881   -0.0806    5.7586 C.ar      1 <0>        -0.1135
     22 N2         -0.3313   -2.5785   -0.9372 N.am      1 <0>        -0.5536
     23 C19        -0.6172   -3.7173   -1.6010 C.2       1 <0>         0.5316
     24 O2          0.1494   -4.4007   -2.2454 O.2       1 <0>        -0.4482
     25 C20        -2.0925   -3.9660   -1.3741 C.3       1 <0>         0.1285
     26 C21        -2.8423   -3.9426   -2.7113 C.3       1 <0>         0.0956
     27 H2         -2.4304   -3.1816   -3.3741 H         1 <0>         0.1775
     28 C22        -4.3011   -3.6477   -2.3828 C.2       1 <0>         0.0658
     29 C23        -5.0081   -4.6562   -2.8839 C.ar      1 <0>        -0.1569
     30 C24        -6.4582   -4.9020   -2.9346 C.ar      1 <0>         0.0026
     31 C25        -6.8482   -6.0633   -3.5239 C.ar      1 <0>        -0.1573
     32 C26        -5.9519   -6.9925   -4.0608 C.ar      1 <0>         0.0599
     33 C27        -4.6029   -6.8451   -4.0617 C.ar      1 <0>        -0.2059
     34 C28        -4.0717   -5.6607   -3.4725 C.ar      1 <0>         0.3380
     35 N3         -2.8282   -5.2587   -3.3546 N.pl3     1 <0>        -0.5773
     36 C29        -4.7427   -2.4499   -1.5777 C.3       1 <0>        -0.1048
     37 C30        -3.9130   -2.4444   -0.2782 C.3       1 <0>         0.1476
     38 N4         -2.5245   -2.7682   -0.6189 N.am      1 <0>        -0.6226
     39 C31        -1.4194   -2.0604   -0.3524 C.2       1 <0>         0.7136
     40 O3         -1.4057   -1.0604    0.3381 O.2       1 <0>        -0.4863
     41 C32        -2.3408   -5.2577   -0.5925 C.3       1 <0>        -0.1546
     42 H3          1.9684   -0.1347   -1.4000 H         1 <0>         0.0903
     43 H4          0.6600   -0.6312   -2.4999 H         1 <0>         0.0757
     44 H5          0.2696    0.0395   -0.8980 H         1 <0>         0.0854
     45 H6          3.2326   -1.0723    0.1953 H         1 <0>         0.4028
     46 H7          2.3620   -0.7047    2.8568 H         1 <0>         0.0769
     47 H8          3.0889   -2.3240    2.7230 H         1 <0>         0.0706
     48 H9          5.1664   -1.3166    1.8186 H         1 <0>         0.0786
     49 H10         4.4395    0.3026    1.9524 H         1 <0>         0.0769
     50 H11         4.8404   -1.6144    4.2919 H         1 <0>         0.0900
     51 H12         6.9900   -1.7533    5.1313 H         1 <0>         0.1214
     52 H13         9.3122   -0.9427    5.2486 H         1 <0>         0.1234
     53 H14         9.9498    1.1375    4.0958 H         1 <0>         0.1227
     54 H15         8.2654    2.4068    2.8249 H         1 <0>         0.1225
     55 H16         5.9451    1.5918    2.7007 H         1 <0>         0.1204
     56 H17         4.2587    1.9155    3.1827 H         1 <0>         0.1202
     57 H18         2.7861    3.4664    4.4030 H         1 <0>         0.1216
     58 H19         1.7015    2.7467    6.4932 H         1 <0>         0.1218
     59 H20         2.0890    0.4758    7.3627 H         1 <0>         0.1226
     60 H21         3.5551   -1.0779    6.1380 H         1 <0>         0.1209
     61 H22        -7.1712   -4.2007   -2.5268 H         1 <0>         0.1726
     62 H23        -7.9049   -6.2794   -3.5800 H         1 <0>         0.1572
     63 H24        -6.3608   -7.8883   -4.5045 H         1 <0>         0.1600
     64 H25        -3.9568   -7.5961   -4.4917 H         1 <0>         0.1710
     65 H26        -4.5571   -1.5352   -2.1407 H         1 <0>         0.1306
     66 H27        -5.8034   -2.5324   -1.3407 H         1 <0>         0.1315
     67 H28        -3.9579   -1.4575    0.1824 H         1 <0>         0.1316
     68 H29        -4.3058   -3.1910    0.4120 H         1 <0>         0.0987
     69 H30        -1.8420   -5.1986    0.3749 H         1 <0>         0.0995
     70 H31        -3.4121   -5.3907   -0.4414 H         1 <0>         0.0861
     71 H32        -1.9453   -6.1040   -1.1542 H         1 <0>         0.0885
     72 H33        -2.0367   -5.7427   -3.6377 H         1 <0>         0.4612
@<TRIPOS>BOND
     1    1    2 1
     2    1   42 1
     3    1   43 1
     4    1   44 1
     5    2    3 1
     6    2    4 1
     7    2   22 1
     8    4    5 2
     9    4    6 am
    10    6    7 1
    11    6   45 1
    12    7    8 1
    13    7   46 1
    14    7   47 1
    15    8    9 1
    16    8   48 1
    17    8   49 1
    18    9   10 1
    19    9   16 1
    20    9   50 1
    21   10   15 ar
    22   10   11 ar
    23   11   12 ar
    24   11   51 1
    25   12   13 ar
    26   12   52 1
    27   13   14 ar
    28   13   53 1
    29   14   15 ar
    30   14   54 1
    31   15   55 1
    32   16   21 ar
    33   16   17 ar
    34   17   18 ar
    35   17   56 1
    36   18   19 ar
    37   18   57 1
    38   19   20 ar
    39   19   58 1
    40   20   21 ar
    41   20   59 1
    42   21   60 1
    43   22   39 am
    44   22   23 am
    45   23   24 2
    46   23   25 1
    47   25   38 1
    48   25   26 1
    49   25   41 1
    50   26   27 1
    51   26   35 1
    52   26   28 1
    53   28   29 2
    54   28   36 1
    55   29   34 ar
    56   29   30 ar
    57   30   31 ar
    58   30   61 1
    59   31   32 ar
    60   31   62 1
    61   32   33 ar
    62   32   63 1
    63   33   34 ar
    64   33   64 1
    65   34   35 2
    66   35   72 1
    67   36   37 1
    68   36   65 1
    69   36   66 1
    70   37   38 1
    71   37   67 1
    72   37   68 1
    73   38   39 am
    74   39   40 2
    75   41   69 1
    76   41   70 1
    77   41   71 1
@<TRIPOS>MOLECULE
ZINC11874585
   69    70     0     0     0
SMALL
USER_CHARGES
2-[(2S)-1-(2,2-dimethylpropyl)-3-oxo-piperazin-2-yl]-N-methyl-N-(2,2,6,6-tetramethyl-4-piperidyl)acetamide
@<TRIPOS>ATOM
      1 C1          3.9754    2.5550    5.0414 C.3       1 <0>        -0.1735
      2 C2          2.7531    3.4162    5.3737 C.3       1 <0>         0.0663
      3 C3          1.6080    3.0766    4.4203 C.3       1 <0>        -0.1398
      4 C4          1.0155    1.7136    4.7830 C.3       1 <0>         0.1277
      5 C5          0.4637    1.7928    6.2063 C.3       1 <0>        -0.1364
      6 C6          1.5734    2.1497    7.1918 C.3       1 <0>         0.0656
      7 C7          2.4493    0.9168    7.4451 C.3       1 <0>        -0.1755
      8 C8          0.9016    2.5149    8.5347 C.3       1 <0>        -0.1856
      9 N1         -0.0797    1.4019    3.8561 N.am      1 <0>        -0.5884
     10 C9         -1.2405    2.2912    3.7683 C.3       1 <0>         0.0516
     11 C10        -0.0145    0.3005    3.0821 C.2       1 <0>         0.5247
     12 O1          0.9488   -0.4331    3.1512 O.2       1 <0>        -0.5498
     13 C11        -1.1386   -0.0195    2.1307 C.3       1 <0>        -0.1648
     14 C12        -0.7586   -1.2350    1.2827 C.3       1 <0>         0.0101
     15 H1         -1.6091   -1.5263    0.6664 H         1 <0>         0.1915
     16 C13         0.4019   -0.8815    0.3962 C.2       1 <0>         0.5165
     17 O2          0.3990    0.1946   -0.1632 O.2       1 <0>        -0.5001
     18 N2          1.4374   -1.7038    0.1977 N.am      1 <0>        -0.7101
     19 C14         1.5544   -3.0046    0.8507 C.3       1 <0>         0.0796
     20 C15         0.1900   -3.4500    1.3801 C.3       1 <0>        -0.0522
     21 C16        -1.5558   -2.8139    2.9362 C.3       1 <0>        -0.0037
     22 C17        -2.3510   -3.8217    2.1038 C.3       1 <0>        -0.0815
     23 C18        -1.5459   -5.1150    1.9630 C.3       1 <0>        -0.1919
     24 C19        -3.6803   -4.1216    2.7994 C.3       1 <0>        -0.1460
     25 C20        -2.6221   -3.2361    0.7165 C.3       1 <0>        -0.1877
     26 C21         3.1456    4.8888    5.1227 C.3       1 <0>        -0.1861
     27 H2          4.2894    2.7502    4.0160 H         1 <0>         0.1066
     28 H3          4.7892    2.8006    5.7236 H         1 <0>         0.0869
     29 H4          3.7173    1.5014    5.1481 H         1 <0>         0.0797
     30 H5          1.9837    3.0480    3.3961 H         1 <0>         0.1163
     31 H6          0.8329    3.8410    4.4956 H         1 <0>         0.0974
     32 H7          1.7721    0.9377    4.7110 H         1 <0>         0.1239
     33 H8         -0.3189    2.5541    6.2490 H         1 <0>         0.0972
     34 H9          0.0304    0.8281    6.4806 H         1 <0>         0.1136
     35 H10         3.1772    1.1421    8.2246 H         1 <0>         0.0877
     36 H11         1.8218    0.0845    7.7637 H         1 <0>         0.1048
     37 H12         2.9717    0.6474    6.5272 H         1 <0>         0.0803
     38 H13         0.2681    3.3913    8.3976 H         1 <0>         0.0833
     39 H14         0.2938    1.6772    8.8767 H         1 <0>         0.1065
     40 H15         1.6690    2.7339    9.2772 H         1 <0>         0.0878
     41 H16        -2.0003    1.9683    4.4801 H         1 <0>         0.0795
     42 H17        -0.9350    3.3114    4.0008 H         1 <0>         0.0886
     43 H18        -1.6499    2.2557    2.7587 H         1 <0>         0.0905
     44 H19        -2.0428   -0.2405    2.6979 H         1 <0>         0.1373
     45 H20        -1.3181    0.8360    1.4796 H         1 <0>         0.1580
     46 H21         2.1425   -1.4236   -0.4066 H         1 <0>         0.4260
     47 H22         1.9207   -3.7381    0.1324 H         1 <0>         0.1281
     48 H23         2.2577   -2.9308    1.6802 H         1 <0>         0.0981
     49 H24        -0.4661   -3.6901    0.5435 H         1 <0>         0.1583
     50 H25         0.3126   -4.3294    2.0124 H         1 <0>         0.1674
     51 H26        -1.2156   -3.2903    3.8557 H         1 <0>         0.1342
     52 H27        -2.1916   -1.9632    3.1815 H         1 <0>         0.1261
     53 H28        -1.0160   -5.3163    2.8940 H         1 <0>         0.0731
     54 H29        -2.2216   -5.9416    1.7434 H         1 <0>         0.0859
     55 H30        -0.8263   -5.0085    1.1512 H         1 <0>         0.0808
     56 H31        -4.2540   -3.2002    2.8997 H         1 <0>         0.0671
     57 H32        -4.2469   -4.8396    2.2063 H         1 <0>         0.0820
     58 H33        -3.4872   -4.5388    3.7877 H         1 <0>         0.0707
     59 H34        -1.6850   -3.1587    0.1653 H         1 <0>         0.0637
     60 H35        -3.3092   -3.8866    0.1755 H         1 <0>         0.0971
     61 H36        -3.0653   -2.2457    0.8205 H         1 <0>         0.0755
     62 H37         2.2866    5.5317    5.3153 H         1 <0>         0.0836
     63 H38         3.9630    5.1656    5.7886 H         1 <0>         0.0876
     64 H39         3.4642    5.0086    4.0872 H         1 <0>         0.1075
     65 N3          2.3932    3.3321    6.8155 N.4       1 <0>        -0.5109
     66 H40         1.8646    4.1773    7.0615 H         1 <0>         0.4321
     67 H41         3.2635    3.3023    7.3597 H         1 <0>         0.4361
     68 N4         -0.3748   -2.3429    2.1775 N.4       1 <0>        -0.3893
     69 H42         0.3360   -2.0092    2.8390 H         1 <0>         0.4329
@<TRIPOS>BOND
     1    1    2 1
     2    1   27 1
     3    1   28 1
     4    1   29 1
     5    2    3 1
     6    2   26 1
     7    2   65 1
     8    3    4 1
     9    3   30 1
    10    3   31 1
    11    4    5 1
    12    4    9 1
    13    4   32 1
    14    5    6 1
    15    5   33 1
    16    5   34 1
    17    6    7 1
    18    6    8 1
    19    6   65 1
    20    7   35 1
    21    7   36 1
    22    7   37 1
    23    8   38 1
    24    8   39 1
    25    8   40 1
    26    9   10 1
    27    9   11 am
    28   10   41 1
    29   10   42 1
    30   10   43 1
    31   11   12 2
    32   11   13 1
    33   13   14 1
    34   13   44 1
    35   13   45 1
    36   14   15 1
    37   14   16 1
    38   14   68 1
    39   16   17 2
    40   16   18 am
    41   18   19 1
    42   18   46 1
    43   19   20 1
    44   19   47 1
    45   19   48 1
    46   20   49 1
    47   20   50 1
    48   20   68 1
    49   21   22 1
    50   21   51 1
    51   21   52 1
    52   21   68 1
    53   22   23 1
    54   22   24 1
    55   22   25 1
    56   23   53 1
    57   23   54 1
    58   23   55 1
    59   24   56 1
    60   24   57 1
    61   24   58 1
    62   25   59 1
    63   25   60 1
    64   25   61 1
    65   26   62 1
    66   26   63 1
    67   26   64 1
    68   65   66 1
    69   65   67 1
    70   68   69 1
@<TRIPOS>MOLECULE
ZINC39698201
   51    54     0     0     0
SMALL
USER_CHARGES

@<TRIPOS>ATOM
      1 C1          0.0118    1.2919    1.0768 C.3       1 <0>        -0.1203
      2 C2         -0.0404   -0.2022    0.8874 C.ar      1 <0>        -0.1075
      3 C3          0.2750   -0.7534   -0.3412 C.ar      1 <0>        -0.0692
      4 C4          0.2282   -2.1220   -0.5182 C.ar      1 <0>        -0.1531
      5 C5         -0.1362   -2.9456    0.5397 C.ar      1 <0>         0.2026
      6 C6         -0.4524   -2.3888    1.7722 C.ar      1 <0>        -0.1767
      7 C7         -0.3980   -1.0193    1.9439 C.ar      1 <0>        -0.0369
      8 C8         -0.7344   -0.4147    3.2827 C.3       1 <0>        -0.1240
      9 N1         -0.1851   -4.3304    0.3640 N.pl3     1 <0>        -0.4276
     10 C9          0.1228   -5.0768   -0.8673 C.3       1 <0>         0.4128
     11 H1          1.1580   -4.9098   -1.1651 H         1 <0>         0.0904
     12 C10        -0.0919   -6.5270   -0.4916 C.2       1 <0>        -0.4087
     13 C11        -0.4730   -6.5454    0.8017 C.2       1 <0>         0.2775
     14 N2         -0.5308   -5.2885    1.3254 N.pl3     1 <0>        -0.4509
     15 C12        -0.7901   -7.8002    1.5737 C.3       1 <0>        -0.1300
     16 C13         0.0744   -7.6452   -1.3333 C.2       1 <0>         0.2102
     17 C14         0.9098   -8.6529   -0.9674 C.2       1 <0>        -0.2551
     18 C15         1.7134   -8.5246    0.2109 C.1       1 <0>         0.2138
     19 N3          2.3509   -8.4228    1.1456 N.1       1 <0>        -0.3612
     20 C16         0.9903   -9.9054   -1.8017 C.3       1 <0>         0.3294
     21 N4          2.3744  -10.1338   -2.2354 N.pl3     1 <0>        -0.4611
     22 C17         2.7520  -11.2805   -1.7485 C.ar      1 <0>         0.3192
     23 C18         4.0083  -12.0377   -1.8353 C.ar      1 <0>        -0.1402
     24 C19         4.1113  -13.2287   -1.2123 C.ar      1 <0>         0.0304
     25 C20         3.0567  -13.7901   -0.4707 C.ar      1 <0>         0.0316
     26 C21         1.8632  -13.1798   -0.3278 C.ar      1 <0>        -0.1416
     27 C22         1.6355  -11.8749   -0.9639 C.ar      1 <0>         0.3179
     28 N5          0.6108  -11.0728   -0.9961 N.pl3     1 <0>        -0.4665
     29 O1         -0.7660   -4.6940   -1.9187 O.3       1 <0>        -0.5674
     30 H2          1.0107    1.5822    1.4023 H         1 <0>         0.0746
     31 H3         -0.2210    1.7861    0.1336 H         1 <0>         0.0712
     32 H4         -0.7167    1.5882    1.8316 H         1 <0>         0.0722
     33 H5          0.5579   -0.1126   -1.1633 H         1 <0>         0.1358
     34 H6          0.4743   -2.5518   -1.4780 H         1 <0>         0.1288
     35 H7         -0.7364   -3.0262    2.5965 H         1 <0>         0.1142
     36 H8         -1.8019   -0.1987    3.3259 H         1 <0>         0.0789
     37 H9         -0.4735   -1.1170    4.0744 H         1 <0>         0.0674
     38 H10        -0.1711    0.5089    3.4161 H         1 <0>         0.0788
     39 H11        -0.7803   -5.0846    2.2404 H         1 <0>         0.4456
     40 H12         0.1171   -8.1736    2.0487 H         1 <0>         0.0967
     41 H13        -1.5353   -7.5783    2.3376 H         1 <0>         0.1000
     42 H14        -1.1815   -8.5563    0.8931 H         1 <0>         0.0964
     43 H15        -0.4620   -7.7014   -2.2690 H         1 <0>         0.1614
     44 H16         0.3350   -9.8199   -2.6685 H         1 <0>         0.2471
     45 H17         4.8437  -11.6425   -2.3942 H         1 <0>         0.2046
     46 H18         5.0411  -13.7733   -1.2853 H         1 <0>         0.2019
     47 H19         3.2088  -14.7487    0.0031 H         1 <0>         0.2018
     48 H20         1.0795  -13.6469    0.2502 H         1 <0>         0.2042
     49 H21        -0.5525   -5.0860   -2.7765 H         1 <0>         0.3930
     50 H22         2.9093   -9.5394   -2.7844 H         1 <0>         0.4950
     51 H23        -0.2464  -11.2193   -0.5664 H         1 <0>         0.4929
@<TRIPOS>BOND
     1    1    2 1
     2    1   30 1
     3    1   31 1
     4    1   32 1
     5    2    7 ar
     6    2    3 ar
     7    3    4 ar
     8    3   33 1
     9    4    5 ar
    10    4   34 1
    11    5    6 ar
    12    5    9 1
    13    6    7 ar
    14    6   35 1
    15    7    8 1
    16    8   36 1
    17    8   37 1
    18    8   38 1
    19    9   14 1
    20    9   10 1
    21   10   11 1
    22   10   12 1
    23   10   29 1
    24   12   13 2
    25   12   16 1
    26   13   14 1
    27   13   15 1
    28   14   39 1
    29   15   40 1
    30   15   41 1
    31   15   42 1
    32   16   17 2
    33   16   43 1
    34   17   18 1
    35   17   20 1
    36   18   19 3
    37   20   28 1
    38   20   21 1
    39   20   44 1
    40   21   22 2
    41   21   50 1
    42   22   27 ar
    43   22   23 ar
    44   23   24 ar
    45   23   45 1
    46   24   25 ar
    47   24   46 1
    48   25   26 ar
    49   25   47 1
    50   26   27 ar
    51   26   48 1
    52   27   28 2
    53   28   51 1
    54   29   49 1
@<TRIPOS>MOLECULE
ZINC38225405
   64    68     0     0     0
SMALL
USER_CHARGES

@<TRIPOS>ATOM
      1 C1         -3.3321    1.2475   -0.3621 C.3       1 <0>        -0.0433
      2 N1         -3.4131   -0.0169    0.3813 N.4       1 <0>        -0.3953
      3 C2         -4.0233    0.2042    1.7177 C.3       1 <0>        -0.0048
      4 C3         -3.5479   -0.9951    2.5656 C.3       1 <0>        -0.1656
      5 C4         -2.2511   -1.4787    1.8843 C.3       1 <0>         0.1470
      6 H1         -2.3646   -2.5070    1.5411 H         1 <0>         0.1270
      7 C5         -2.0521   -0.5309    0.6820 C.3       1 <0>        -0.0258
      8 N2         -1.1204   -1.3740    2.8100 N.pl3     1 <0>        -0.6375
      9 C6         -0.8216   -0.0954    3.4596 C.3       1 <0>         0.0803
     10 C7         -0.3353   -2.4821    3.0705 C.2       1 <0>         0.3600
     11 C8          0.3678   -3.0653    2.0609 C.2       1 <0>        -0.1280
     12 C9          1.1655   -4.1870    2.3150 C.2       1 <0>        -0.0088
     13 C10         1.2369   -4.6947    3.5776 C.2       1 <0>        -0.1255
     14 C11         0.5052   -4.0829    4.6132 C.cat     1 <0>         0.3240
     15 N3         -0.2657   -2.9817    4.3416 N.pl3     1 <0>        -0.3403
     16 C12        -0.8494   -2.6000    5.5231 C.2       1 <0>        -0.0125
     17 C13        -0.4243   -3.4591    6.4729 C.2       1 <0>         0.1240
     18 N4          0.3886   -4.3559    5.9058 N.pl3     1 <0>        -0.5056
     19 C14        -0.8112   -3.4209    7.9289 C.3       1 <0>         0.1022
     20 N5         -1.9427   -4.3290    8.1588 N.3       1 <0>        -0.5135
     21 C15        -1.5005   -5.7298    8.1665 C.3       1 <0>         0.0102
     22 C16        -2.6438   -3.9914    9.4048 C.3       1 <0>         0.1442
     23 H2         -3.3976   -4.7515    9.6104 H         1 <0>         0.1119
     24 C17        -1.6388   -3.9551   10.5542 C.3       1 <0>        -0.1567
     25 C18        -2.3425   -3.3961   11.7965 C.3       1 <0>        -0.1195
     26 C19        -2.6189   -1.9115   11.5652 C.3       1 <0>        -0.0861
     27 C20        -3.3083   -1.7023   10.2439 C.ar      1 <0>        -0.1111
     28 C21        -3.3179   -2.6524    9.2488 C.ar      1 <0>         0.1212
     29 N6         -3.9378   -2.4070    8.1017 N.ar      1 <0>        -0.4596
     30 C22        -4.5609   -1.2728    7.8658 C.ar      1 <0>         0.0869
     31 C23        -4.5938   -0.2757    8.8222 C.ar      1 <0>        -0.1636
     32 C24        -3.9590   -0.4908   10.0319 C.ar      1 <0>        -0.0770
     33 H3         -2.7998    1.0846   -1.2992 H         1 <0>         0.1275
     34 H4         -4.3381    1.6096   -0.5738 H         1 <0>         0.1297
     35 H5         -2.7982    1.9866    0.2352 H         1 <0>         0.1222
     36 H6         -3.6663    1.1397    2.1485 H         1 <0>         0.1353
     37 H7         -5.1107    0.2096    1.6429 H         1 <0>         0.1432
     38 H8         -3.3428   -0.6781    3.5882 H         1 <0>         0.1182
     39 H9         -4.2978   -1.7860    2.5568 H         1 <0>         0.1144
     40 H10        -1.6554   -1.0791   -0.1725 H         1 <0>         0.1458
     41 H11        -1.3867    0.2895    0.9508 H         1 <0>         0.1412
     42 H12        -1.3308   -0.0492    4.4223 H         1 <0>         0.0618
     43 H13         0.2541   -0.0085    3.6131 H         1 <0>         0.0826
     44 H14        -1.1656    0.7228    2.8269 H         1 <0>         0.0841
     45 H15         0.3095   -2.6615    1.0609 H         1 <0>         0.1754
     46 H16         1.7224   -4.6487    1.5131 H         1 <0>         0.1793
     47 H17         1.8498   -5.5601    3.7822 H         1 <0>         0.1832
     48 H18        -1.5225   -1.7676    5.6662 H         1 <0>         0.2144
     49 H19         0.0363   -3.7349    8.5383 H         1 <0>         0.0779
     50 H20        -1.0987   -2.4056    8.2019 H         1 <0>         0.1157
     51 H21        -0.7685   -5.8754    8.9610 H         1 <0>         0.0444
     52 H22        -2.3578   -6.3806    8.3387 H         1 <0>         0.0890
     53 H23        -1.0470   -5.9729    7.2056 H         1 <0>         0.0570
     54 H24        -1.2800   -4.9637   10.7591 H         1 <0>         0.0814
     55 H25        -0.8003   -3.3118   10.2875 H         1 <0>         0.0702
     56 H26        -3.2826   -3.9244   11.9549 H         1 <0>         0.0740
     57 H27        -1.7003   -3.5186   12.6686 H         1 <0>         0.0815
     58 H28        -3.2551   -1.5351   12.3663 H         1 <0>         0.0863
     59 H29        -1.6757   -1.3652   11.5691 H         1 <0>         0.0827
     60 H30        -5.0510   -1.1192    6.9158 H         1 <0>         0.1510
     61 H31        -5.1070    0.6546    8.6285 H         1 <0>         0.1367
     62 H32        -3.9673    0.2698   10.7987 H         1 <0>         0.1387
     63 H33         0.8313   -5.0845    6.3683 H         1 <0>         0.4613
     64 H34        -3.9410   -0.7001   -0.1409 H         1 <0>         0.4350
@<TRIPOS>BOND
     1    1    2 1
     2    1   33 1
     3    1   34 1
     4    1   35 1
     5    2    7 1
     6    2    3 1
     7    2   64 1
     8    3    4 1
     9    3   36 1
    10    3   37 1
    11    4    5 1
    12    4   38 1
    13    4   39 1
    14    5    6 1
    15    5    7 1
    16    5    8 1
    17    7   40 1
    18    7   41 1
    19    8    9 1
    20    8   10 1
    21    9   42 1
    22    9   43 1
    23    9   44 1
    24   10   15 1
    25   10   11 2
    26   11   12 1
    27   11   45 1
    28   12   13 2
    29   12   46 1
    30   13   14 1
    31   13   47 1
    32   14   18 2
    33   14   15 1
    34   15   16 1
    35   16   17 2
    36   16   48 1
    37   17   18 1
    38   17   19 1
    39   18   63 1
    40   19   20 1
    41   19   49 1
    42   19   50 1
    43   20   21 1
    44   20   22 1
    45   21   51 1
    46   21   52 1
    47   21   53 1
    48   22   23 1
    49   22   28 1
    50   22   24 1
    51   24   25 1
    52   24   54 1
    53   24   55 1
    54   25   26 1
    55   25   56 1
    56   25   57 1
    57   26   27 1
    58   26   58 1
    59   26   59 1
    60   27   32 ar
    61   27   28 ar
    62   28   29 ar
    63   29   30 ar
    64   30   31 ar
    65   30   60 1
    66   31   32 ar
    67   31   61 1
    68   32   62 1
@<TRIPOS>MOLECULE
ZINC63952552
   51    54     0     0     0
SMALL
USER_CHARGES

@<TRIPOS>ATOM
      1 C1         -0.0184    1.5028    0.0103 C.3       1 <0>        -0.1335
      2 C2          0.0021   -0.0041    0.0020 C.ar      1 <0>        -0.0344
      3 C3          0.0057   -0.6887   -1.1989 C.ar      1 <0>        -0.1046
      4 C4          0.0245   -2.0709   -1.2065 C.ar      1 <0>        -0.0607
      5 C5          0.0400   -2.7685   -0.0132 C.ar      1 <0>        -0.1205
      6 C6          0.0373   -2.0839    1.1877 C.ar      1 <0>        -0.1028
      7 C7          0.0229   -0.7016    1.1953 C.ar      1 <0>        -0.1079
      8 C8          0.0595   -4.2753   -0.0215 C.3       1 <0>        -0.0389
      9 H1          0.4131   -4.6003   -1.0000 H         1 <0>         0.2304
     10 C9         -1.3666   -4.7645    0.1490 C.2       1 <0>         0.5052
     11 O1         -2.2448   -4.4512   -0.6294 O.2       1 <0>        -0.3540
     12 N1         -1.6103   -5.5607    1.2016 N.2       1 <0>        -0.5321
     13 C10        -0.6411   -5.8854    2.0295 C.2       1 <0>         0.5584
     14 N2          0.6466   -5.4622    1.9022 N.pl3     1 <0>        -0.2216
     15 N3          1.0335   -4.7244    0.9878 N.2       1 <0>         0.1120
     16 N4         -0.9454   -6.6965    3.0818 N.pl3     1 <0>        -0.6441
     17 C11        -2.3170   -7.1782    3.2627 C.3       1 <0>         0.1225
     18 C12        -2.3866   -8.0633    4.5087 C.3       1 <0>        -0.1040
     19 C13        -3.7976   -8.5589    4.6948 C.2       1 <0>         0.0399
     20 C14        -4.3053   -9.7388    4.2758 C.ar      1 <0>        -0.1570
     21 C15        -3.7163  -10.8709    3.5485 C.ar      1 <0>         0.0104
     22 C16        -4.4887  -11.9410    3.2628 C.ar      1 <0>        -0.1991
     23 C17        -5.8428  -11.9971    3.6443 C.ar      1 <0>         0.2982
     24 C18        -6.4534  -10.9891    4.3178 C.ar      1 <0>        -0.2714
     25 C19        -5.7313   -9.8207    4.6670 C.ar      1 <0>         0.3498
     26 N5         -6.0902   -8.7302    5.3045 N.pl3     1 <0>        -0.5900
     27 C20        -4.9286   -7.8385    5.3937 C.3       1 <0>         0.0699
     28 O2         -6.5647  -13.1000    3.3263 O.3       1 <0>        -0.2776
     29 C21        -5.8852  -14.1378    2.6169 C.3       1 <0>         0.0065
     30 H2          1.0042    1.8801    0.0026 H         1 <0>         0.0880
     31 H3         -0.5455    1.8639   -0.8728 H         1 <0>         0.0809
     32 H4         -0.5286    1.8543    0.9071 H         1 <0>         0.0778
     33 H5         -0.0064   -0.1436   -2.1312 H         1 <0>         0.1468
     34 H6          0.0266   -2.6057   -2.1448 H         1 <0>         0.1430
     35 H7          0.0491   -2.6289    2.1200 H         1 <0>         0.1076
     36 H8          0.0245   -0.1667    2.1335 H         1 <0>         0.1405
     37 H9         -0.2537   -6.9548    3.7109 H         1 <0>         0.4336
     38 H10        -2.9879   -6.3277    3.3833 H         1 <0>         0.1105
     39 H11        -2.6171   -7.7567    2.3889 H         1 <0>         0.1104
     40 H12        -1.7157   -8.9139    4.3881 H         1 <0>         0.1204
     41 H13        -2.0865   -7.4849    5.3825 H         1 <0>         0.1251
     42 H14        -2.6797  -10.8476    3.2462 H         1 <0>         0.1666
     43 H15        -4.0573  -12.7743    2.7281 H         1 <0>         0.1682
     44 H16        -7.4950  -11.0779    4.5891 H         1 <0>         0.1703
     45 H17        -4.6706   -7.6572    6.4371 H         1 <0>         0.1704
     46 H18        -5.1419   -6.8959    4.8897 H         1 <0>         0.1673
     47 H19        -6.5755  -14.9596    2.4260 H         1 <0>         0.1279
     48 H20        -5.5141  -13.7475    1.6693 H         1 <0>         0.0772
     49 H21        -5.0478  -14.4982    3.2144 H         1 <0>         0.0779
     50 H22        -6.9739   -8.5467    5.6601 H         1 <0>         0.4588
     51 H23         1.2939   -5.7537    2.5631 H         1 <0>         0.4816
@<TRIPOS>BOND
     1    1    2 1
     2    1   30 1
     3    1   31 1
     4    1   32 1
     5    2    7 ar
     6    2    3 ar
     7    3    4 ar
     8    3   33 1
     9    4    5 ar
    10    4   34 1
    11    5    6 ar
    12    5    8 1
    13    6    7 ar
    14    6   35 1
    15    7   36 1
    16    8    9 1
    17    8   15 1
    18    8   10 1
    19   10   11 2
    20   10   12 1
    21   12   13 2
    22   13   14 1
    23   13   16 1
    24   14   15 2
    25   14   51 1
    26   16   17 1
    27   16   37 1
    28   17   18 1
    29   17   38 1
    30   17   39 1
    31   18   19 1
    32   18   40 1
    33   18   41 1
    34   19   27 1
    35   19   20 2
    36   20   25 ar
    37   20   21 ar
    38   21   22 ar
    39   21   42 1
    40   22   23 ar
    41   22   43 1
    42   23   24 ar
    43   23   28 1
    44   24   25 ar
    45   24   44 1
    46   25   26 2
    47   26   27 1
    48   26   50 1
    49   27   45 1
    50   27   46 1
    51   28   29 1
    52   29   47 1
    53   29   48 1
    54   29   49 1
@<TRIPOS>MOLECULE
ZINC64450336
   47    51     0     0     0
SMALL
USER_CHARGES

@<TRIPOS>ATOM
      1 C1         -0.0778    1.4392   -0.6665 C.3       1 <0>        -0.1252
      2 C2         -0.0856   -0.0674   -0.6317 C.2       1 <0>         0.1690
      3 C3         -1.1023   -0.7886   -0.2550 C.2       1 <0>        -0.2363
      4 C4         -2.5263   -0.4062    0.0658 C.3       1 <0>         0.0412
      5 H1         -2.7832   -0.7305    1.0742 H         1 <0>         0.1081
      6 C5         -3.4066   -1.1322   -0.9627 C.3       1 <0>        -0.1338
      7 C6         -2.8901   -2.5002   -1.2706 C.2       1 <0>         0.5309
      8 O1         -3.6835   -3.2739   -1.7632 O.2       1 <0>        -0.5015
      9 N1         -1.6586   -2.9697   -1.0666 N.am      1 <0>        -0.7030
     10 C7         -0.6618   -2.2434   -0.2907 C.3       1 <0>         0.2815
     11 H2         -0.5959   -2.6485    0.7191 H         1 <0>         0.0854
     12 N2          0.6575   -2.1922   -0.9299 N.3       1 <0>        -0.2135
     13 N3          0.9865   -0.8641   -1.0022 N.pl3     1 <0>        -0.5478
     14 C8          1.6501   -2.9429   -0.1494 C.3       1 <0>         0.3659
     15 N4          1.2680   -4.3587   -0.0766 N.pl3     1 <0>        -0.4729
     16 C9          1.0983   -4.6533    1.1800 C.ar      1 <0>         0.3145
     17 C10         0.7183   -5.8920    1.8732 C.ar      1 <0>        -0.1364
     18 C11         0.6191   -5.8981    3.2176 C.ar      1 <0>         0.0360
     19 C12         0.8656   -4.7567    4.0012 C.ar      1 <0>         0.0302
     20 C13         1.2195   -3.5708    3.4667 C.ar      1 <0>        -0.1366
     21 C14         1.3597   -3.4453    2.0094 C.ar      1 <0>         0.3055
     22 N5          1.6808   -2.4506    1.2336 N.pl3     1 <0>        -0.5105
     23 C15        -2.7027    1.0852   -0.0588 C.ar      1 <0>        -0.0987
     24 C16        -2.8913    1.6571   -1.3032 C.ar      1 <0>        -0.1036
     25 C17        -3.0532    3.0249   -1.4181 C.ar      1 <0>        -0.1037
     26 C18        -3.0263    3.8218   -0.2874 C.ar      1 <0>        -0.0232
     27 C19        -2.8375    3.2489    0.9577 C.ar      1 <0>        -0.1039
     28 C20        -2.6814    1.8803    1.0719 C.ar      1 <0>        -0.0953
     29 Cl1        -3.2290    5.5400   -0.4310 Cl        1 <0>        -0.0441
     30 H3          0.9196    1.7914   -0.9296 H         1 <0>         0.0832
     31 H4         -0.7944    1.7892   -1.4095 H         1 <0>         0.1144
     32 H5         -0.3530    1.8267    0.3144 H         1 <0>         0.1070
     33 H6         -4.4189   -1.2158   -0.5673 H         1 <0>         0.1287
     34 H7         -3.4335   -0.5477   -1.8823 H         1 <0>         0.1237
     35 H8         -1.4172   -3.8277   -1.4494 H         1 <0>         0.4030
     36 H9          1.8544   -0.5267   -1.2740 H         1 <0>         0.4583
     37 H10         2.6359   -2.8435   -0.6038 H         1 <0>         0.2476
     38 H11         0.5195   -6.7914    1.3093 H         1 <0>         0.2062
     39 H12         0.3388   -6.8162    3.7125 H         1 <0>         0.2041
     40 H13         0.7670   -4.8332    5.0739 H         1 <0>         0.2032
     41 H14         1.3989   -2.7186    4.1055 H         1 <0>         0.2038
     42 H15        -2.9119    1.0350   -2.1857 H         1 <0>         0.1348
     43 H16        -3.2002    3.4716   -2.3903 H         1 <0>         0.1429
     44 H17        -2.8162    3.8705    1.8406 H         1 <0>         0.1422
     45 H18        -2.5388    1.4325    2.0442 H         1 <0>         0.1338
     46 H19         1.1611   -4.9636   -0.8273 H         1 <0>         0.4969
     47 H20         1.9004   -1.5494    1.5172 H         1 <0>         0.4881
@<TRIPOS>BOND
     1    1    2 1
     2    1   30 1
     3    1   31 1
     4    1   32 1
     5    2   13 1
     6    2    3 2
     7    3   10 1
     8    3    4 1
     9    4    5 1
    10    4    6 1
    11    4   23 1
    12    6    7 1
    13    6   33 1
    14    6   34 1
    15    7    8 2
    16    7    9 am
    17    9   10 1
    18    9   35 1
    19   10   11 1
    20   10   12 1
    21   12   13 1
    22   12   14 1
    23   13   36 1
    24   14   22 1
    25   14   15 1
    26   14   37 1
    27   15   16 2
    28   15   46 1
    29   16   21 ar
    30   16   17 ar
    31   17   18 ar
    32   17   38 1
    33   18   19 ar
    34   18   39 1
    35   19   20 ar
    36   19   40 1
    37   20   21 ar
    38   20   41 1
    39   21   22 2
    40   22   47 1
    41   23   28 ar
    42   23   24 ar
    43   24   25 ar
    44   24   42 1
    45   25   26 ar
    46   25   43 1
    47   26   27 ar
    48   26   29 1
    49   27   28 ar
    50   27   44 1
    51   28   45 1
@<TRIPOS>MOLECULE
ZINC02182650
   50    52     0     0     0
SMALL
USER_CHARGES
1-(3-nitrophenyl)-N-[(1S,2S)-2-[(3-nitrophenyl)methyleneamino]cyclohexyl]methanimine
@<TRIPOS>ATOM
      1 C1          1.1682    2.0938    0.0021 C.ar      1 <0>        -0.1055
      2 C2          2.3774    1.4300   -0.0129 C.ar      1 <0>        -0.0252
      3 C3          2.4037    0.0339   -0.0207 C.ar      1 <0>        -0.1887
      4 C4          1.2041   -0.6806   -0.0131 C.ar      1 <0>         0.0307
      5 C5          0.0021   -0.0041    0.0020 C.ar      1 <0>        -0.0423
      6 C6         -0.0167    1.3794    0.0096 C.ar      1 <0>         0.0271
      7 N1         -1.2705   -0.7598    0.0106 N.pl3     1 <0>         0.0089
      8 O1         -2.3326   -0.1638    0.0243 O.2       1 <0>        -0.1125
      9 O2         -1.2556   -1.9777    0.0039 O.3       1 <0>        -0.1283
     10 C7          3.6939   -0.6833   -0.0373 C.2       1 <0>         0.3813
     11 N2          4.8031   -0.0186   -0.0443 N.pl3     1 <0>        -0.5802
     12 C8          6.0835   -0.7303   -0.0608 C.3       1 <0>         0.0847
     13 H1          5.8562   -1.8066   -0.0647 H         1 <0>         0.1462
     14 C9          6.8675   -0.3406   -1.3155 C.3       1 <0>        -0.1329
     15 C10         8.2047   -1.0839   -1.3328 C.3       1 <0>        -0.1289
     16 C11         9.0130   -0.7084   -0.0892 C.3       1 <0>        -0.1289
     17 C12         8.2290   -1.0981    1.1655 C.3       1 <0>        -0.1329
     18 C13         6.8918   -0.3548    1.1828 C.3       1 <0>         0.0847
     19 H2          7.0534    0.7324    1.2262 H         1 <0>         0.1462
     20 N3          6.1411   -0.7280    2.3842 N.pl3     1 <0>        -0.5802
     21 C14         5.8049    0.1776    3.2439 C.2       1 <0>         0.3813
     22 C15         5.0485   -0.1984    4.4545 C.ar      1 <0>        -0.1885
     23 C16         4.6894   -1.5302    4.6716 C.ar      1 <0>        -0.0253
     24 C17         3.9875   -1.8755    5.8079 C.ar      1 <0>        -0.1054
     25 C18         3.6295   -0.9039    6.7257 C.ar      1 <0>         0.0271
     26 C19         3.9771    0.4185    6.5140 C.ar      1 <0>        -0.0423
     27 C20         4.6839    0.7769    5.3848 C.ar      1 <0>         0.0307
     28 N4          3.5902    1.4508    7.5015 N.pl3     1 <0>         0.0090
     29 O3          3.8959    2.6153    7.3167 O.2       1 <0>        -0.1284
     30 O4          2.9662    1.1359    8.4989 O.3       1 <0>        -0.1124
     31 H3          1.1464    3.1735    0.0081 H         1 <0>         0.1768
     32 H4          3.3016    1.9888   -0.0184 H         1 <0>         0.1475
     33 H5          1.2174   -1.7605   -0.0194 H         1 <0>         0.1799
     34 H6         -0.9606    1.9041    0.0169 H         1 <0>         0.1826
     35 H7          3.7117   -1.7831   -0.0437 H         1 <0>         0.2240
     36 H8          6.2863   -0.6106   -2.2096 H         1 <0>         0.1047
     37 H9          7.0509    0.7440   -1.3112 H         1 <0>         0.0971
     38 H10         8.0213   -2.1685   -1.3372 H         1 <0>         0.0831
     39 H11         8.7683   -0.8037   -2.2349 H         1 <0>         0.1030
     40 H12         9.9744   -1.2428   -0.1016 H         1 <0>         0.1030
     41 H13         9.1965    0.3762   -0.0848 H         1 <0>         0.0831
     42 H14         8.0456   -2.1827    1.1611 H         1 <0>         0.0971
     43 H15         8.8101   -0.8282    2.0596 H         1 <0>         0.1048
     44 H16         6.0826    1.2282    3.0731 H         1 <0>         0.2240
     45 H17         4.9640   -2.2888    3.9537 H         1 <0>         0.1475
     46 H18         3.7129   -2.9058    5.9793 H         1 <0>         0.1769
     47 H19         3.0764   -1.1791    7.6116 H         1 <0>         0.1826
     48 H20         4.9544    1.8095    5.2206 H         1 <0>         0.1799
     49 H21         4.7853    1.0812   -0.0379 H         1 <0>         0.4664
     50 H22         5.8634   -1.7786    2.5550 H         1 <0>         0.4664
@<TRIPOS>BOND
     1    1    6 ar
     2    1    2 ar
     3    1   31 1
     4    2    3 ar
     5    2   32 1
     6    3    4 ar
     7    3   10 1
     8    4    5 ar
     9    4   33 1
    10    5    6 ar
    11    5    7 1
    12    6   34 1
    13    7    8 2
    14    7    9 1
    15   10   11 2
    16   10   35 1
    17   11   12 1
    18   11   49 1
    19   12   13 1
    20   12   18 1
    21   12   14 1
    22   14   15 1
    23   14   36 1
    24   14   37 1
    25   15   16 1
    26   15   38 1
    27   15   39 1
    28   16   17 1
    29   16   40 1
    30   16   41 1
    31   17   18 1
    32   17   42 1
    33   17   43 1
    34   18   19 1
    35   18   20 1
    36   20   21 2
    37   20   50 1
    38   21   22 1
    39   21   44 1
    40   22   27 ar
    41   22   23 ar
    42   23   24 ar
    43   23   45 1
    44   24   25 ar
    45   24   46 1
    46   25   26 ar
    47   25   47 1
    48   26   27 ar
    49   26   28 1
    50   27   48 1
    51   28   29 2
    52   28   30 1
@<TRIPOS>MOLECULE
ZINC38980539
   48    51     0     0     0
SMALL
USER_CHARGES

@<TRIPOS>ATOM
      1 C1         -0.0162    1.3469    0.0094 C.ar      1 <0>        -0.0081
      2 C2          1.1685    2.1018    0.0022 C.ar      1 <0>         0.1328
      3 C3          2.3951    1.5361   -0.0125 C.ar      1 <0>        -0.2019
      4 C4          2.5337    0.1249   -0.0215 C.ar      1 <0>         0.3783
      5 N1          3.7316   -0.4211   -0.0354 N.pl3     1 <0>        -0.5312
      6 C5          3.8982   -1.7532   -0.0446 C.2       1 <0>         0.4649
      7 N2          5.0919   -2.2688   -0.0583 N.2       1 <0>        -0.8069
      8 S1          6.4207   -1.2805   -0.0644 S.o2      1 <0>         2.6286
      9 O1          6.4067   -0.5889   -1.3057 O.2       1 <0>        -0.9170
     10 O2          6.4290   -0.6033    1.1848 O.2       1 <0>        -0.9188
     11 C6          7.8431   -2.3201   -0.0832 C.2       1 <0>        -0.7801
     12 C7          8.5261   -2.8132   -1.1452 C.2       1 <0>         0.0368
     13 C8          9.6268   -3.6181   -0.9191 C.2       1 <0>        -0.2022
     14 C9          9.9908   -3.8906    0.3578 C.2       1 <0>        -0.0837
     15 S2          8.7636   -2.9910    1.2915 S.3       1 <0>         0.2004
     16 C10         2.6774   -2.6452   -0.0383 C.3       1 <0>         0.2603
     17 H1          2.7425   -3.2921    0.8366 H         1 <0>         0.2196
     18 N3          1.3552   -2.0000   -0.0222 N.pl3     1 <0>        -0.4511
     19 C11         1.2987   -0.6973   -0.0141 C.ar      1 <0>         0.3423
     20 C12         0.0021   -0.0041    0.0020 C.ar      1 <0>        -0.1227
     21 N4          2.7425   -3.5027   -1.2293 N.3       1 <0>        -0.6207
     22 C13         2.4193   -4.8958   -0.8934 C.3       1 <0>         0.0671
     23 C14         3.6795   -5.6055   -0.3943 C.3       1 <0>        -0.1149
     24 C15         3.3430   -7.0564   -0.0444 C.3       1 <0>        -0.1222
     25 C16         2.8140   -7.7717   -1.2892 C.3       1 <0>        -0.1301
     26 C17         1.5538   -7.0620   -1.7883 C.3       1 <0>        -0.1180
     27 C18         1.8904   -5.6110   -2.1382 C.3       1 <0>        -0.1250
     28 H2         -0.9665    1.8598    0.0259 H         1 <0>         0.2123
     29 H3          1.0956    3.1793    0.0083 H         1 <0>         0.2129
     30 H4          3.2751    2.1622   -0.0179 H         1 <0>         0.2145
     31 H5          8.2147   -2.5809   -2.1529 H         1 <0>         0.1532
     32 H6         10.1883   -4.0241   -1.7476 H         1 <0>         0.1615
     33 H7         10.8124   -4.4925    0.7171 H         1 <0>         0.2119
     34 H8         -0.9205   -0.5655    0.0082 H         1 <0>         0.2181
     35 H9          2.1362   -3.1564   -1.9577 H         1 <0>         0.3771
     36 H10         1.6587   -4.9143   -0.1129 H         1 <0>         0.0767
     37 H11         4.4402   -5.5870   -1.1747 H         1 <0>         0.0866
     38 H12         4.0564   -5.0959    0.4925 H         1 <0>         0.0685
     39 H13         4.2408   -7.5620    0.3112 H         1 <0>         0.0793
     40 H14         2.5823   -7.0749    0.7361 H         1 <0>         0.0660
     41 H15         3.5747   -7.7532   -2.0697 H         1 <0>         0.0700
     42 H16         2.5743   -8.8054   -1.0399 H         1 <0>         0.0764
     43 H17         1.1770   -7.5715   -2.6751 H         1 <0>         0.0810
     44 H18         0.7931   -7.0805   -1.0078 H         1 <0>         0.0676
     45 H19         0.9926   -5.1054   -2.4938 H         1 <0>         0.0690
     46 H20         2.6510   -5.5925   -2.9187 H         1 <0>         0.0874
     47 H21         0.5439   -2.5316   -0.0180 H         1 <0>         0.4800
     48 H22         4.5132    0.1534   -0.0394 H         1 <0>         0.4535
@<TRIPOS>BOND
     1    1   20 ar
     2    1    2 ar
     3    1   28 1
     4    2    3 ar
     5    2   29 1
     6    3    4 ar
     7    3   30 1
     8    4   19 ar
     9    4    5 2
    10    5    6 1
    11    5   48 1
    12    6    7 2
    13    6   16 1
    14    7    8 1
    15    8    9 2
    16    8   10 2
    17    8   11 1
    18   11   15 1
    19   11   12 2
    20   12   13 1
    21   12   31 1
    22   13   14 2
    23   13   32 1
    24   14   15 1
    25   14   33 1
    26   16   17 1
    27   16   18 1
    28   16   21 1
    29   18   19 2
    30   18   47 1
    31   19   20 ar
    32   20   34 1
    33   21   22 1
    34   21   35 1
    35   22   27 1
    36   22   23 1
    37   22   36 1
    38   23   24 1
    39   23   37 1
    40   23   38 1
    41   24   25 1
    42   24   39 1
    43   24   40 1
    44   25   26 1
    45   25   41 1
    46   25   42 1
    47   26   27 1
    48   26   43 1
    49   26   44 1
    50   27   45 1
    51   27   46 1
@<TRIPOS>MOLECULE
ZINC39927419
   46    50     0     0     0
SMALL
USER_CHARGES

@<TRIPOS>ATOM
      1 C1          0.0164    1.5030    0.0112 C.3       1 <0>        -0.0971
      2 C2          0.0169   -0.0040    0.0024 C.2       1 <0>         0.1823
      3 C3          0.0327   -0.8156   -1.1352 C.2       1 <0>        -0.2175
      4 C4          0.0282   -2.1124   -0.7220 C.2       1 <0>         0.3255
      5 N1          0.0102   -2.1099    0.6305 N.pl3     1 <0>        -0.4439
      6 N2          0.0084   -0.7763    1.0586 N.2       1 <0>        -0.3117
      7 C5         -0.0003   -3.2928    1.4947 C.3       1 <0>         0.5114
      8 N3         -1.2282   -3.3181    2.2994 N.pl3     1 <0>        -0.4845
      9 C6         -0.8754   -3.2777    3.5517 C.ar      1 <0>         0.3542
     10 C7         -1.6411   -3.2767    4.8058 C.ar      1 <0>        -0.1429
     11 C8         -0.9878   -3.2273    5.9839 C.ar      1 <0>         0.0474
     12 C9          0.4148   -3.1753    6.0714 C.ar      1 <0>         0.0464
     13 C10         1.2112   -3.1711    4.9838 C.ar      1 <0>        -0.1416
     14 C11         0.6092   -3.2232    3.6443 C.ar      1 <0>         0.3543
     15 N4          1.1168   -3.2321    2.4457 N.pl3     1 <0>        -0.4804
     16 N5          0.0396   -3.2392   -1.5439 N.am      1 <0>        -0.6530
     17 C12        -0.0706   -3.1000   -2.8799 C.2       1 <0>         0.5443
     18 O1         -0.1797   -1.9948   -3.3675 O.2       1 <0>        -0.4519
     19 C13        -0.0583   -4.3175   -3.7679 C.3       1 <0>        -0.1002
     20 H1         -0.4621   -5.1874   -3.2498 H         1 <0>         0.1614
     21 C14        -0.8057   -4.0547   -5.0945 C.3       1 <0>         0.0409
     22 H2         -1.5870   -3.3146   -4.9216 H         1 <0>         0.1344
     23 C15         0.1232   -3.5473   -6.1700 C.ar      1 <0>        -0.1197
     24 C16        -0.2416   -2.8488   -7.3240 C.ar      1 <0>        -0.0509
     25 C17         0.7017   -2.4506   -8.2436 C.ar      1 <0>        -0.0987
     26 C18         2.0434   -2.7323   -8.0506 C.ar      1 <0>        -0.0025
     27 C19         2.4292   -3.4160   -6.9117 C.ar      1 <0>        -0.0714
     28 C20         1.4792   -3.8070   -5.9870 C.ar      1 <0>        -0.0643
     29 S1          1.6279   -4.6511   -4.4259 S.3       1 <0>        -0.0512
     30 Cl1         3.2247   -2.2349   -9.2214 Cl        1 <0>        -0.0319
     31 Cl2        -1.5658   -5.5906   -5.6550 Cl        1 <0>        -0.1141
     32 H3          1.0439    1.8666    0.0223 H         1 <0>         0.1051
     33 H4         -0.4898    1.8714   -0.8811 H         1 <0>         0.1048
     34 H5         -0.5052    1.8610    0.8988 H         1 <0>         0.0905
     35 H6          0.0457   -0.4745   -2.1598 H         1 <0>         0.2045
     36 H7          0.0711   -4.1975    0.8909 H         1 <0>         0.2381
     37 H8         -2.7202   -3.3149    4.7839 H         1 <0>         0.2102
     38 H9         -1.5646   -3.2272    6.8970 H         1 <0>         0.2091
     39 H10         0.8722   -3.1370    7.0490 H         1 <0>         0.2092
     40 H11         2.2845   -3.1296    5.0961 H         1 <0>         0.2105
     41 H12         0.1269   -4.1231   -1.1539 H         1 <0>         0.4115
     42 H13        -1.2822   -2.6177   -7.4976 H         1 <0>         0.1427
     43 H14         0.3915   -1.9121   -9.1269 H         1 <0>         0.1511
     44 H15         3.4716   -3.6444   -6.7454 H         1 <0>         0.1471
     45 H16        -2.1360   -3.3575    1.9600 H         1 <0>         0.4958
     46 H17         2.0602   -3.2041    2.2218 H         1 <0>         0.4970
@<TRIPOS>BOND
     1    1    2 1
     2    1   32 1
     3    1   33 1
     4    1   34 1
     5    2    6 2
     6    2    3 1
     7    3    4 2
     8    3   35 1
     9    4    5 1
    10    4   16 1
    11    5    6 1
    12    5    7 1
    13    7   15 1
    14    7    8 1
    15    7   36 1
    16    8    9 2
    17    8   45 1
    18    9   14 ar
    19    9   10 ar
    20   10   11 ar
    21   10   37 1
    22   11   12 ar
    23   11   38 1
    24   12   13 ar
    25   12   39 1
    26   13   14 ar
    27   13   40 1
    28   14   15 2
    29   15   46 1
    30   16   17 am
    31   16   41 1
    32   17   18 2
    33   17   19 1
    34   19   20 1
    35   19   29 1
    36   19   21 1
    37   21   22 1
    38   21   23 1
    39   21   31 1
    40   23   28 ar
    41   23   24 ar
    42   24   25 ar
    43   24   42 1
    44   25   26 ar
    45   25   43 1
    46   26   27 ar
    47   26   30 1
    48   27   28 ar
    49   27   44 1
    50   28   29 1
@<TRIPOS>MOLECULE
ZINC63294810
   55    59     0     0     0
SMALL
USER_CHARGES

@<TRIPOS>ATOM
      1 C1         -0.3915    1.6893   -0.4058 C.ar      1 <0>         0.0360
      2 C2          0.7398    2.5230   -0.4548 C.ar      1 <0>         0.0365
      3 C3          1.9988    2.0427   -0.4164 C.ar      1 <0>        -0.1393
      4 C4          2.2191    0.5931   -0.3192 C.ar      1 <0>         0.3327
      5 N1          3.2955   -0.1369   -0.2652 N.pl3     1 <0>        -0.4682
      6 C5          2.8721   -1.5399   -0.1743 C.3       1 <0>         0.2805
      7 N2          1.4039   -1.5308   -0.1825 N.pl3     1 <0>        -0.4668
      8 C6          1.0215   -0.2894   -0.2668 C.ar      1 <0>         0.3322
      9 C7         -0.3020    0.3472   -0.3163 C.ar      1 <0>        -0.1387
     10 C8          3.3991   -2.3263   -1.3763 C.3       1 <0>        -0.1667
     11 S1          2.7435   -1.6042   -2.9058 S.3       1 <0>        -0.1837
     12 C9          3.4528   -2.6369   -4.2178 C.3       1 <0>        -0.1048
     13 C10         2.9815   -2.1383   -5.5596 C.2       1 <0>         0.5305
     14 O1          2.2402   -1.1806   -5.6244 O.2       1 <0>        -0.5261
     15 N3          3.3839   -2.7566   -6.6875 N.am      1 <0>        -0.5940
     16 C11         4.2770   -3.9216   -6.6248 C.3       1 <0>         0.1033
     17 C12         5.4923   -3.6600   -7.5200 C.3       1 <0>        -0.1217
     18 C13         5.0152   -3.3090   -8.9312 C.3       1 <0>        -0.1158
     19 C14         4.1677   -2.0356   -8.8830 C.3       1 <0>        -0.1258
     20 C15         2.9330   -2.2822   -8.0029 C.3       1 <0>         0.1132
     21 C16         6.2270   -3.0809   -9.8369 C.3       1 <0>         0.3662
     22 H1          5.9060   -2.7817  -10.8346 H         1 <0>         0.0822
     23 N4          7.1213   -2.0652   -9.2563 N.pl3     1 <0>        -0.6627
     24 N5          8.3454   -2.7038   -9.0299 N.2       1 <0>        -0.3085
     25 C17         8.3074   -3.9567   -9.3936 C.2       1 <0>         0.3008
     26 N6          7.0551   -4.2932   -9.9043 N.pl3     1 <0>        -0.5501
     27 C18         6.7986   -5.5627  -10.3471 C.2       1 <0>         0.1519
     28 C19         7.7415   -6.5187  -10.3038 C.2       1 <0>        -0.2270
     29 C20         9.0312   -6.2463   -9.7993 C.2       1 <0>        -0.0432
     30 C21         9.3397   -5.0008   -9.3443 C.2       1 <0>        -0.1376
     31 H2         -1.3713    2.1426   -0.4366 H         1 <0>         0.2044
     32 H3          0.5942    3.5908   -0.5263 H         1 <0>         0.2044
     33 H4          2.8400    2.7188   -0.4573 H         1 <0>         0.2065
     34 H5          3.2384   -1.9819    0.7523 H         1 <0>         0.2469
     35 H6         -1.1970   -0.2562   -0.2809 H         1 <0>         0.2065
     36 H7          4.4881   -2.2813   -1.3909 H         1 <0>         0.1596
     37 H8          3.0795   -3.3655   -1.2990 H         1 <0>         0.1607
     38 H9          4.5407   -2.5853   -4.1726 H         1 <0>         0.1296
     39 H10         3.1321   -3.6695   -4.0808 H         1 <0>         0.1300
     40 H11         4.6064   -4.0746   -5.5971 H         1 <0>         0.0799
     41 H12         3.7477   -4.8071   -6.9767 H         1 <0>         0.0829
     42 H13         6.0709   -2.8300   -7.1146 H         1 <0>         0.0756
     43 H14         6.1150   -4.5538   -7.5583 H         1 <0>         0.0804
     44 H15         4.4159   -4.1293   -9.3264 H         1 <0>         0.0865
     45 H16         4.7588   -1.2209   -8.4648 H         1 <0>         0.0718
     46 H17         3.8478   -1.7732   -9.8914 H         1 <0>         0.0890
     47 H18         2.2963   -3.0367   -8.4649 H         1 <0>         0.0809
     48 H19         2.3753   -1.3531   -7.8848 H         1 <0>         0.1002
     49 H20         6.9050   -1.1385   -9.0685 H         1 <0>         0.4449
     50 H21         5.8202   -5.8002  -10.7381 H         1 <0>         0.1524
     51 H22         7.5089   -7.5113  -10.6603 H         1 <0>         0.1440
     52 H23         9.7757   -7.0283   -9.7724 H         1 <0>         0.1387
     53 H24        10.3241   -4.7820   -8.9575 H         1 <0>         0.1461
     54 H25         4.2097    0.1867   -0.2822 H         1 <0>         0.4962
     55 H26         0.8249   -2.3076   -0.1344 H         1 <0>         0.4963
@<TRIPOS>BOND
     1    1    9 ar
     2    1    2 ar
     3    1   31 1
     4    2    3 ar
     5    2   32 1
     6    3    4 ar
     7    3   33 1
     8    4    8 ar
     9    4    5 2
    10    5    6 1
    11    5   54 1
    12    6    7 1
    13    6   10 1
    14    6   34 1
    15    7    8 2
    16    7   55 1
    17    8    9 ar
    18    9   35 1
    19   10   11 1
    20   10   36 1
    21   10   37 1
    22   11   12 1
    23   12   13 1
    24   12   38 1
    25   12   39 1
    26   13   14 2
    27   13   15 am
    28   15   20 1
    29   15   16 1
    30   16   17 1
    31   16   40 1
    32   16   41 1
    33   17   18 1
    34   17   42 1
    35   17   43 1
    36   18   19 1
    37   18   21 1
    38   18   44 1
    39   19   20 1
    40   19   45 1
    41   19   46 1
    42   20   47 1
    43   20   48 1
    44   21   22 1
    45   21   26 1
    46   21   23 1
    47   23   24 1
    48   23   49 1
    49   24   25 2
    50   25   30 1
    51   25   26 1
    52   26   27 1
    53   27   28 2
    54   27   50 1
    55   28   29 1
    56   28   51 1
    57   29   30 2
    58   29   52 1
    59   30   53 1
@<TRIPOS>MOLECULE
ZINC63994223
   65    70     0     0     0
SMALL
USER_CHARGES

@<TRIPOS>ATOM
      1 C1          0.7817   -1.5268    0.5142 C.3       1 <0>        -0.1894
      2 C2         -0.1435   -0.4653   -0.0841 C.3       1 <0>         0.1344
      3 N1         -1.4750   -1.0395   -0.2927 N.am      1 <0>        -0.6298
      4 C3         -2.3371   -1.4452    0.6595 C.2       1 <0>         0.6997
      5 O1         -2.1067   -1.3820    1.8512 O.2       1 <0>        -0.4938
      6 N2         -3.4763   -1.9255    0.1459 N.am      1 <0>        -0.5624
      7 C4         -3.4710   -1.8807   -1.2027 C.2       1 <0>         0.5333
      8 O2         -4.3528   -2.2409   -1.9527 O.2       1 <0>        -0.4399
      9 C5         -2.1368   -1.2809   -1.5806 C.3       1 <0>         0.1096
     10 C6         -2.3327    0.0295   -2.3368 C.3       1 <0>        -0.1370
     11 C7         -0.9665    0.5854   -2.7483 C.3       1 <0>        -0.0358
     12 N3         -0.2732   -0.3927   -3.5954 N.4       1 <0>        -0.3862
     13 C8         -0.0052   -1.6161   -2.8297 C.3       1 <0>        -0.0224
     14 C9         -1.3305   -2.2657   -2.4215 C.3       1 <0>        -0.1410
     15 C10         0.9970    0.1791   -4.0617 C.3       1 <0>         0.0451
     16 C11         0.7178    1.3427   -4.9777 C.2       1 <0>        -0.0601
     17 C12         0.6869    2.6526   -4.6422 C.ar      1 <0>        -0.0864
     18 C13         0.8947    3.3590   -3.3724 C.ar      1 <0>        -0.0753
     19 C14         0.7957    4.7076   -3.3481 C.ar      1 <0>        -0.0939
     20 C15         0.4998    5.4458   -4.5023 C.ar      1 <0>         0.0554
     21 C16         0.2959    4.8680   -5.7051 C.ar      1 <0>        -0.1959
     22 C17         0.3761    3.4552   -5.8467 C.ar      1 <0>         0.3328
     23 N4          0.2210    2.6719   -6.8864 N.pl3     1 <0>        -0.5518
     24 C18         0.4221    1.2827   -6.4597 C.3       1 <0>         0.0663
     25 C19        -4.5904   -2.4363    0.9484 C.3       1 <0>         0.1450
     26 C20        -5.0231   -1.4010    2.0082 C.3       1 <0>        -0.0884
     27 C21        -5.4260   -2.2170    3.2178 C.ar      1 <0>        -0.0964
     28 C22        -6.1775   -1.8665    4.3271 C.ar      1 <0>        -0.1015
     29 C23        -6.4207   -2.7922    5.3225 C.ar      1 <0>        -0.1110
     30 C24        -5.9128   -4.0734    5.2123 C.ar      1 <0>        -0.1112
     31 C25        -5.1632   -4.4248    4.1069 C.ar      1 <0>        -0.1008
     32 C26        -4.9182   -3.4978    3.1076 C.ar      1 <0>        -0.0976
     33 C27        -4.1392   -3.6301    1.8164 C.3       1 <0>        -0.0866
     34 H1          1.7939   -1.1285    0.5848 H         1 <0>         0.0839
     35 H2          0.4279   -1.7983    1.5088 H         1 <0>         0.0863
     36 H3          0.7825   -2.4099   -0.1247 H         1 <0>         0.0628
     37 H4         -0.2157    0.3807    0.5993 H         1 <0>         0.0979
     38 H5          0.2602   -0.1278   -1.0387 H         1 <0>         0.0730
     39 H6         -2.9354   -0.1506   -3.2269 H         1 <0>         0.1190
     40 H7         -2.8392    0.7487   -1.6932 H         1 <0>         0.1311
     41 H8         -1.1043    1.5133   -3.3033 H         1 <0>         0.1351
     42 H9         -0.3704    0.7808   -1.8569 H         1 <0>         0.1520
     43 H10         0.5658   -2.3117   -3.4448 H         1 <0>         0.1557
     44 H11         0.5675   -1.3672   -1.9364 H         1 <0>         0.1478
     45 H12        -1.1307   -3.1642   -1.8377 H         1 <0>         0.1338
     46 H13        -1.8965   -2.5299   -3.3148 H         1 <0>         0.1210
     47 H14         1.5772    0.5222   -3.2051 H         1 <0>         0.1645
     48 H15         1.5613   -0.5812   -4.6017 H         1 <0>         0.1747
     49 H16         1.1229    2.8099   -2.4708 H         1 <0>         0.1649
     50 H17         0.9482    5.2293   -2.4149 H         1 <0>         0.1707
     51 H18         0.4319    6.5209   -4.4261 H         1 <0>         0.1742
     52 H19         0.0702    5.4820   -6.5645 H         1 <0>         0.1734
     53 H20         1.2640    0.8416   -6.9933 H         1 <0>         0.1883
     54 H21        -0.4829    0.7021   -6.6390 H         1 <0>         0.1769
     55 H22        -5.4289   -2.7159    0.3106 H         1 <0>         0.1283
     56 H23        -4.1903   -0.7429    2.2562 H         1 <0>         0.0961
     57 H24        -5.8704   -0.8194    1.6450 H         1 <0>         0.0840
     58 H25        -6.5743   -0.8658    4.4140 H         1 <0>         0.1226
     59 H26        -7.0068   -2.5156    6.1865 H         1 <0>         0.1300
     60 H27        -6.1018   -4.7985    5.9900 H         1 <0>         0.1302
     61 H28        -4.7667   -5.4258    4.0215 H         1 <0>         0.1231
     62 H29        -4.3831   -4.5705    1.3223 H         1 <0>         0.0854
     63 H30        -3.0687   -3.5717    2.0129 H         1 <0>         0.0907
     64 H31         0.0122    2.9626   -7.7880 H         1 <0>         0.4673
     65 H32        -0.8513   -0.6157   -4.3918 H         1 <0>         0.4286
@<TRIPOS>BOND
     1    1    2 1
     2    1   34 1
     3    1   35 1
     4    1   36 1
     5    2    3 1
     6    2   37 1
     7    2   38 1
     8    3    9 1
     9    3    4 am
    10    4    5 2
    11    4    6 am
    12    6    7 am
    13    6   25 1
    14    7    8 2
    15    7    9 1
    16    9   14 1
    17    9   10 1
    18   10   11 1
    19   10   39 1
    20   10   40 1
    21   11   12 1
    22   11   41 1
    23   11   42 1
    24   12   13 1
    25   12   15 1
    26   12   65 1
    27   13   14 1
    28   13   43 1
    29   13   44 1
    30   14   45 1
    31   14   46 1
    32   15   16 1
    33   15   47 1
    34   15   48 1
    35   16   24 1
    36   16   17 2
    37   17   22 ar
    38   17   18 ar
    39   18   19 ar
    40   18   49 1
    41   19   20 ar
    42   19   50 1
    43   20   21 ar
    44   20   51 1
    45   21   22 ar
    46   21   52 1
    47   22   23 2
    48   23   24 1
    49   23   64 1
    50   24   53 1
    51   24   54 1
    52   25   33 1
    53   25   26 1
    54   25   55 1
    55   26   27 1
    56   26   56 1
    57   26   57 1
    58   27   32 ar
    59   27   28 ar
    60   28   29 ar
    61   28   58 1
    62   29   30 ar
    63   29   59 1
    64   30   31 ar
    65   30   60 1
    66   31   32 ar
    67   31   61 1
    68   32   33 1
    69   33   62 1
    70   33   63 1
@<TRIPOS>MOLECULE
ZINC08152475
   54    55     0     0     0
SMALL
USER_CHARGES
2-[(2,6-dichlorophenyl)carbamoylmethyl-methyl-amino]-N-(2,3-dimethylcyclohexyl)-acetamide
@<TRIPOS>ATOM
      1 C1         -0.2256   -8.6445   -4.4256 C.3       1 <0>        -0.1524
      2 C2         -1.1846   -7.6720   -3.7361 C.3       1 <0>        -0.0835
      3 H1         -1.5531   -8.1186   -2.8126 H         1 <0>         0.0744
      4 C3         -2.3637   -7.3742   -4.6645 C.3       1 <0>        -0.1226
      5 C4         -3.3227   -6.4017   -3.9750 C.3       1 <0>        -0.1187
      6 C5         -2.5854   -5.1002   -3.6535 C.3       1 <0>        -0.1296
      7 C6         -1.4063   -5.3980   -2.7251 C.3       1 <0>         0.1470
      8 H2         -1.7748   -5.8446   -1.8015 H         1 <0>         0.0971
      9 C7         -0.4473   -6.3705   -3.4145 C.3       1 <0>        -0.0935
     10 H3          0.3927   -6.5827   -2.7531 H         1 <0>         0.0787
     11 C8          0.0700   -5.7437   -4.7109 C.3       1 <0>        -0.1589
     12 N1         -0.7003   -4.1518   -2.4171 N.am      1 <0>        -0.6980
     13 C9         -1.1285   -3.3661   -1.4093 C.2       1 <0>         0.4986
     14 O1         -2.0982   -3.6908   -0.7572 O.2       1 <0>        -0.5214
     15 C10        -0.4022   -2.0842   -1.0925 C.3       1 <0>        -0.0289
     16 C11        -2.4112   -0.9705   -0.3267 C.3       1 <0>        -0.0594
     17 C12        -0.2499   -0.2922    0.5286 C.3       1 <0>        -0.0253
     18 C13        -0.8244    0.2119    1.8274 C.2       1 <0>         0.5081
     19 O2         -1.8112   -0.3131    2.2983 O.2       1 <0>        -0.4984
     20 N2         -0.2416    1.2460    2.4658 N.am      1 <0>        -0.6555
     21 C14        -0.8337    1.7823    3.6158 C.ar      1 <0>         0.1280
     22 C15        -1.7650    2.8074    3.5060 C.ar      1 <0>        -0.0151
     23 C16        -2.3511    3.3312    4.6431 C.ar      1 <0>        -0.0970
     24 C17        -2.0040    2.8430    5.8894 C.ar      1 <0>        -0.0724
     25 C18        -1.0733    1.8267    6.0028 C.ar      1 <0>        -0.0969
     26 C19        -0.4871    1.2945    4.8696 C.ar      1 <0>        -0.0132
     27 Cl1         0.6805    0.0178    5.0131 Cl        1 <0>        -0.0418
     28 Cl2        -2.1966    3.4257    1.9423 Cl        1 <0>        -0.0443
     29 H4          0.1429   -8.1980   -5.3491 H         1 <0>         0.0604
     30 H5          0.6144   -8.8567   -3.7642 H         1 <0>         0.0563
     31 H6         -0.7509   -9.5717   -4.6547 H         1 <0>         0.0608
     32 H7         -2.8890   -8.3014   -4.8936 H         1 <0>         0.0699
     33 H8         -1.9952   -6.9277   -5.5880 H         1 <0>         0.0689
     34 H9         -3.6912   -6.8482   -3.0515 H         1 <0>         0.0664
     35 H10        -4.1628   -6.1895   -4.6364 H         1 <0>         0.0710
     36 H11        -3.2687   -4.4074   -3.1623 H         1 <0>         0.0655
     37 H12        -2.2169   -4.6537   -4.5770 H         1 <0>         0.0714
     38 H13         0.5952   -4.8165   -4.4818 H         1 <0>         0.0473
     39 H14         0.7532   -6.4366   -5.2021 H         1 <0>         0.0701
     40 H15        -0.7701   -5.5316   -5.3723 H         1 <0>         0.0687
     41 H16         0.0752   -3.8922   -2.9387 H         1 <0>         0.4087
     42 H17        -0.4235   -1.4297   -1.9639 H         1 <0>         0.1640
     43 H18         0.6321   -2.3076   -0.8311 H         1 <0>         0.1601
     44 H19        -2.3461   -0.2176   -1.1122 H         1 <0>         0.1196
     45 H20        -2.9892   -1.8218   -0.6864 H         1 <0>         0.1395
     46 H21        -2.9011   -0.5420    0.5476 H         1 <0>         0.1379
     47 H22         0.7750   -0.6262    0.6899 H         1 <0>         0.1640
     48 H23        -0.2586    0.5109   -0.2084 H         1 <0>         0.1683
     49 H24         0.5880    1.6187    2.1286 H         1 <0>         0.4225
     50 H25        -3.0782    4.1253    4.5583 H         1 <0>         0.1521
     51 H26        -2.4607    3.2567    6.7763 H         1 <0>         0.1545
     52 H27        -0.8043    1.4480    6.9778 H         1 <0>         0.1522
     53 N3         -1.0620   -1.4346    0.0596 N.4       1 <0>        -0.3694
     54 H28        -1.1496   -2.1168    0.8220 H         1 <0>         0.4441
@<TRIPOS>BOND
     1    1    2 1
     2    1   29 1
     3    1   30 1
     4    1   31 1
     5    2    3 1
     6    2    9 1
     7    2    4 1
     8    4    5 1
     9    4   32 1
    10    4   33 1
    11    5    6 1
    12    5   34 1
    13    5   35 1
    14    6    7 1
    15    6   36 1
    16    6   37 1
    17    7    8 1
    18    7    9 1
    19    7   12 1
    20    9   10 1
    21    9   11 1
    22   11   38 1
    23   11   39 1
    24   11   40 1
    25   12   13 am
    26   12   41 1
    27   13   14 2
    28   13   15 1
    29   15   42 1
    30   15   43 1
    31   15   53 1
    32   16   44 1
    33   16   45 1
    34   16   46 1
    35   16   53 1
    36   17   18 1
    37   17   47 1
    38   17   48 1
    39   17   53 1
    40   18   19 2
    41   18   20 am
    42   20   21 1
    43   20   49 1
    44   21   26 ar
    45   21   22 ar
    46   22   23 ar
    47   22   28 1
    48   23   24 ar
    49   23   50 1
    50   24   25 ar
    51   24   51 1
    52   25   26 ar
    53   25   52 1
    54   26   27 1
    55   53   54 1
@<TRIPOS>MOLECULE
ZINC16636655
   55    56     0     0     0
SMALL
USER_CHARGES
(2R)-2-[[2-[(2,3-dimethylphenyl)amino]-2-oxo-ethyl]-methyl-amino]-N-(2-methylsulfanylphenyl)propanamide
@<TRIPOS>ATOM
      1 C1          3.5346   -4.9360    4.8496 C.3       1 <0>        -0.1218
      2 C2          2.2771   -4.2375    4.4003 C.ar      1 <0>        -0.0655
      3 C3          1.1256   -4.9681    4.1700 C.ar      1 <0>        -0.1141
      4 C4         -0.0302   -4.3309    3.7582 C.ar      1 <0>        -0.1030
      5 C5         -0.0383   -2.9617    3.5759 C.ar      1 <0>        -0.1166
      6 C6          1.1161   -2.2252    3.8063 C.ar      1 <0>         0.1203
      7 C7          2.2772   -2.8692    4.2140 C.ar      1 <0>        -0.0995
      8 C8          3.5340   -2.0746    4.4591 C.3       1 <0>        -0.1210
      9 N1          1.1112   -0.8381    3.6226 N.am      1 <0>        -0.6411
     10 C9          0.3580   -0.2900    2.6485 C.2       1 <0>         0.5076
     11 O1         -0.3812   -0.9887    1.9878 O.2       1 <0>        -0.5119
     12 C10         0.4342    1.1910    2.3804 C.3       1 <0>        -0.0362
     13 C11        -0.0298    0.9298    0.0184 C.3       1 <0>        -0.0536
     14 C12        -0.6085    2.9935    1.1449 C.3       1 <0>         0.0099
     15 H1         -1.1649    3.2249    0.2366 H         1 <0>         0.1726
     16 C13         0.7817    3.6277    1.0670 C.3       1 <0>        -0.1821
     17 C14        -1.3453    3.5432    2.3390 C.2       1 <0>         0.5033
     18 O2         -1.6872    2.8008    3.2352 O.2       1 <0>        -0.5103
     19 N2         -1.6242    4.8598    2.4113 N.am      1 <0>        -0.6317
     20 C15        -2.2239    5.3869    3.5630 C.ar      1 <0>         0.1380
     21 C16        -3.0064    4.5773    4.3721 C.ar      1 <0>        -0.1090
     22 C17        -3.5928    5.0979    5.5107 C.ar      1 <0>        -0.1032
     23 C18        -3.4104    6.4284    5.8413 C.ar      1 <0>        -0.0980
     24 C19        -2.6368    7.2445    5.0380 C.ar      1 <0>        -0.1130
     25 C20        -2.0400    6.7292    3.8958 C.ar      1 <0>        -0.1012
     26 S1         -1.0535    7.7672    2.8691 S.3       1 <0>        -0.1324
     27 C21        -1.1109    9.3821    3.6934 C.3       1 <0>        -0.1348
     28 H2          4.1161   -5.2340    3.9772 H         1 <0>         0.0760
     29 H3          4.1257   -4.2591    5.4664 H         1 <0>         0.0717
     30 H4          3.2714   -5.8202    5.4302 H         1 <0>         0.0733
     31 H5          1.1294   -6.0387    4.3118 H         1 <0>         0.1300
     32 H6         -0.9277   -4.9042    3.5791 H         1 <0>         0.1310
     33 H7         -0.9417   -2.4644    3.2548 H         1 <0>         0.1384
     34 H8          3.5638   -1.7539    5.5005 H         1 <0>         0.0764
     35 H9          4.4040   -2.6955    4.2452 H         1 <0>         0.0803
     36 H10         3.5434   -1.1997    3.8091 H         1 <0>         0.0597
     37 H11         1.6498   -0.2710    4.1963 H         1 <0>         0.4184
     38 H12         1.4546    1.4586    2.1062 H         1 <0>         0.1633
     39 H13         0.1436    1.7380    3.2773 H         1 <0>         0.1688
     40 H14         0.0718   -0.1475    0.1495 H         1 <0>         0.1423
     41 H15         0.9328    1.3533   -0.2686 H         1 <0>         0.1255
     42 H16        -0.7633    1.1334   -0.7617 H         1 <0>         0.1291
     43 H17         1.3146    3.2301    0.2033 H         1 <0>         0.1027
     44 H18         0.6828    4.7086    0.9669 H         1 <0>         0.1148
     45 H19         1.3380    3.3963    1.9753 H         1 <0>         0.0905
     46 H20        -1.4099    5.4426    1.6661 H         1 <0>         0.4208
     47 H21        -3.1546    3.5389    4.1150 H         1 <0>         0.1560
     48 H22        -4.1987    4.4646    6.1418 H         1 <0>         0.1354
     49 H23        -3.8742    6.8308    6.7297 H         1 <0>         0.1349
     50 H24        -2.4970    8.2832    5.2987 H         1 <0>         0.1338
     51 H25        -0.5213   10.1013    3.1249 H         1 <0>         0.1167
     52 H26        -2.1443    9.7240    3.7511 H         1 <0>         0.0906
     53 H27        -0.7016    9.2912    4.6996 H         1 <0>         0.0902
     54 N3         -0.5011    1.5261    1.2861 N.4       1 <0>        -0.3666
     55 H28        -1.4274    1.1440    1.5103 H         1 <0>         0.4439
@<TRIPOS>BOND
     1    1    2 1
     2    1   28 1
     3    1   29 1
     4    1   30 1
     5    2    7 ar
     6    2    3 ar
     7    3    4 ar
     8    3   31 1
     9    4    5 ar
    10    4   32 1
    11    5    6 ar
    12    5   33 1
    13    6    7 ar
    14    6    9 1
    15    7    8 1
    16    8   34 1
    17    8   35 1
    18    8   36 1
    19    9   10 am
    20    9   37 1
    21   10   11 2
    22   10   12 1
    23   12   38 1
    24   12   39 1
    25   12   54 1
    26   13   40 1
    27   13   41 1
    28   13   42 1
    29   13   54 1
    30   14   15 1
    31   14   16 1
    32   14   17 1
    33   14   54 1
    34   16   43 1
    35   16   44 1
    36   16   45 1
    37   17   18 2
    38   17   19 am
    39   19   20 1
    40   19   46 1
    41   20   25 ar
    42   20   21 ar
    43   21   22 ar
    44   21   47 1
    45   22   23 ar
    46   22   48 1
    47   23   24 ar
    48   23   49 1
    49   24   25 ar
    50   24   50 1
    51   25   26 1
    52   26   27 1
    53   27   51 1
    54   27   52 1
    55   27   53 1
    56   54   55 1
@<TRIPOS>MOLECULE
ZINC36205778
   62    65     0     0     0
SMALL
USER_CHARGES

@<TRIPOS>ATOM
      1 C1         -1.2610    1.3651   -0.3390 C.3       1 <0>        -0.1110
      2 C2         -1.3582   -0.1376   -0.3985 C.ar      1 <0>        -0.0423
      3 C3         -1.6097   -0.7671   -1.6008 C.ar      1 <0>        -0.1193
      4 C4         -1.6991   -2.1462   -1.6569 C.ar      1 <0>        -0.1024
      5 C5         -1.5373   -2.9027   -0.5098 C.ar      1 <0>        -0.1252
      6 C6         -1.2859   -2.2845    0.6978 C.ar      1 <0>        -0.0964
      7 C7         -1.1885   -0.8948    0.7595 C.ar      1 <0>        -0.0523
      8 C8         -0.9121   -0.2250    2.0526 C.2       1 <0>        -0.0145
      9 C9          0.2725   -0.4068    2.6849 C.2       1 <0>        -0.1608
     10 S1          0.1116    0.5868    4.1560 S.3       1 <0>         0.1846
     11 C10        -1.5256    1.2168    3.8907 C.2       1 <0>         0.0710
     12 C11        -1.9073    0.6468    2.6653 C.2       1 <0>        -0.2067
     13 C12        -3.2141    0.9980    2.1984 C.2       1 <0>         0.5511
     14 O1         -3.6367    0.5494    1.1467 O.2       1 <0>        -0.4724
     15 N1         -3.9693    1.8306    2.9386 N.am      1 <0>        -0.6202
     16 H1         -4.8556    2.0721    2.6272 H         1 <0>         0.4276
     17 C13        -3.5151    2.3389    4.1128 C.2       1 <0>         0.3874
     18 N2         -2.3309    2.0301    4.5691 N.2       1 <0>        -0.5093
     19 C14        -4.3961    3.2677    4.9079 C.3       1 <0>         0.0246
     20 N3         -3.7565    3.5660    6.1962 N.4       1 <0>        -0.3605
     21 C15        -3.6818    2.3397    7.0015 C.3       1 <0>        -0.0557
     22 C16        -4.9891    1.5572    6.8614 C.3       1 <0>         0.1131
     23 C17        -4.9834    0.3763    7.8342 C.3       1 <0>        -0.1793
     24 C18        -6.1701    2.4758    7.1812 C.3       1 <0>        -0.1815
     25 O2         -5.1123    1.0713    5.5232 O.3       1 <0>        -0.5558
     26 C19        -4.5470    4.5753    6.9133 C.3       1 <0>        -0.0193
     27 C20        -4.5025    5.8980    6.1456 C.3       1 <0>        -0.1412
     28 C21        -5.3259    6.9492    6.8926 C.3       1 <0>        -0.1165
     29 C22        -4.7439    7.1524    8.2929 C.3       1 <0>        -0.1318
     30 C23        -4.7885    5.8297    9.0606 C.3       1 <0>        -0.1169
     31 C24        -3.9651    4.7785    8.3137 C.3       1 <0>        -0.1395
     32 H2         -0.2285    1.6696   -0.5103 H         1 <0>         0.0697
     33 H3         -1.9005    1.8013   -1.1064 H         1 <0>         0.0680
     34 H4         -1.5838    1.7115    0.6428 H         1 <0>         0.0541
     35 H5         -1.7373   -0.1817   -2.4993 H         1 <0>         0.1243
     36 H6         -1.8965   -2.6344   -2.5998 H         1 <0>         0.1256
     37 H7         -1.6082   -3.9792   -0.5597 H         1 <0>         0.1262
     38 H8         -1.1601   -2.8759    1.5926 H         1 <0>         0.1214
     39 H9          1.1125   -1.0095    2.3726 H         1 <0>         0.2060
     40 H10        -4.5429    4.1938    4.3520 H         1 <0>         0.1556
     41 H11        -5.3611    2.7921    5.0828 H         1 <0>         0.1983
     42 H12        -2.8516    1.7257    6.6522 H         1 <0>         0.1488
     43 H13        -3.5252    2.6011    8.0480 H         1 <0>         0.1503
     44 H14        -4.8894    0.7470    8.8549 H         1 <0>         0.0822
     45 H15        -5.9147   -0.1811    7.7344 H         1 <0>         0.0884
     46 H16        -4.1420   -0.2781    7.6064 H         1 <0>         0.0722
     47 H17        -6.2963    3.1991    6.3756 H         1 <0>         0.0769
     48 H18        -7.0775    1.8800    7.2800 H         1 <0>         0.0982
     49 H19        -5.9778    3.0027    8.1158 H         1 <0>         0.0954
     50 H20        -4.3960    0.4812    5.2515 H         1 <0>         0.3868
     51 H21        -5.5801    4.2371    6.9948 H         1 <0>         0.1682
     52 H22        -3.4695    6.2362    6.0642 H         1 <0>         0.0879
     53 H23        -4.9171    5.7533    5.1480 H         1 <0>         0.0847
     54 H24        -5.2941    7.8915    6.3456 H         1 <0>         0.0857
     55 H25        -6.3589    6.6110    6.9740 H         1 <0>         0.0751
     56 H26        -3.7109    7.4906    8.2115 H         1 <0>         0.0710
     57 H27        -5.3305    7.9013    8.8250 H         1 <0>         0.0801
     58 H28        -4.3739    5.9745   10.0582 H         1 <0>         0.0862
     59 H29        -5.8215    5.4915    9.1420 H         1 <0>         0.0747
     60 H30        -3.9968    3.8362    8.8606 H         1 <0>         0.0892
     61 H31        -2.9321    5.1167    8.2323 H         1 <0>         0.0895
     62 H32        -2.8254    3.9201    6.0355 H         1 <0>         0.4304
@<TRIPOS>BOND
     1    1    2 1
     2    1   32 1
     3    1   33 1
     4    1   34 1
     5    2    7 ar
     6    2    3 ar
     7    3    4 ar
     8    3   35 1
     9    4    5 ar
    10    4   36 1
    11    5    6 ar
    12    5   37 1
    13    6    7 ar
    14    6   38 1
    15    7    8 1
    16    8   12 1
    17    8    9 2
    18    9   10 1
    19    9   39 1
    20   10   11 1
    21   11   18 1
    22   11   12 2
    23   12   13 1
    24   13   14 2
    25   13   15 am
    26   15   16 1
    27   15   17 1
    28   17   18 2
    29   17   19 1
    30   19   20 1
    31   19   40 1
    32   19   41 1
    33   20   21 1
    34   20   26 1
    35   20   62 1
    36   21   22 1
    37   21   42 1
    38   21   43 1
    39   22   23 1
    40   22   24 1
    41   22   25 1
    42   23   44 1
    43   23   45 1
    44   23   46 1
    45   24   47 1
    46   24   48 1
    47   24   49 1
    48   25   50 1
    49   26   31 1
    50   26   27 1
    51   26   51 1
    52   27   28 1
    53   27   52 1
    54   27   53 1
    55   28   29 1
    56   28   54 1
    57   28   55 1
    58   29   30 1
    59   29   56 1
    60   29   57 1
    61   30   31 1
    62   30   58 1
    63   30   59 1
    64   31   60 1
    65   31   61 1
@<TRIPOS>MOLECULE
ZINC57381842
   59    62     0     0     0
SMALL
USER_CHARGES

@<TRIPOS>ATOM
      1 C1         -0.9396   -2.5432   -1.1537 C.3       1 <0>        -0.0554
      2 N1         -1.4743   -1.9705    0.0889 N.4       1 <0>        -0.3837
      3 C2         -0.7688   -2.5514    1.2391 C.3       1 <0>        -0.0499
      4 C3         -1.2805   -0.5144    0.0801 C.3       1 <0>         0.1219
      5 H1         -0.2186   -0.2898   -0.0204 H         1 <0>         0.1599
      6 C4         -2.0442    0.0946   -1.0976 C.3       1 <0>         0.1030
      7 N2         -1.7661    1.5312   -1.1695 N.am      1 <0>        -0.7243
      8 C5         -2.2600    2.2630   -2.1878 C.2       1 <0>         0.5201
      9 O1         -2.9346    1.7323   -3.0446 O.2       1 <0>        -0.5187
     10 C6         -1.9740    3.7408   -2.2617 C.3       1 <0>         0.1011
     11 N3         -2.6171    4.3037   -3.4516 N.am      1 <0>        -0.7237
     12 C7         -2.4968    5.6181   -3.7244 C.2       1 <0>         0.5294
     13 O2         -1.8562    6.3348   -2.9850 O.2       1 <0>        -0.5314
     14 C8         -3.1583    6.1971   -4.9484 C.3       1 <0>        -0.0665
     15 C9         -2.6090    5.5081   -6.1992 C.3       1 <0>        -0.0996
     16 C10        -3.2807    6.0960   -7.4418 C.3       1 <0>        -0.0843
     17 C11        -2.9903    7.5964   -7.5169 C.3       1 <0>        -0.1116
     18 C12        -3.5396    8.2853   -6.2661 C.3       1 <0>        -0.0874
     19 C13        -2.8680    7.6974   -5.0235 C.3       1 <0>        -0.0877
     20 C14        -5.0509    8.0619   -6.1829 C.3       1 <0>        -0.1117
     21 C15        -5.3413    6.5616   -6.1078 C.3       1 <0>        -0.0843
     22 C16        -4.7920    5.8726   -7.3586 C.3       1 <0>        -0.1108
     23 C17        -4.6697    5.9737   -4.8652 C.3       1 <0>        -0.0999
     24 C18        -1.7976    0.0690    1.3697 C.2       1 <0>        -0.2661
     25 C19        -1.2720    1.0613    2.1290 C.2       1 <0>        -0.0749
     26 C20        -1.9265    1.4376    3.2869 C.2       1 <0>        -0.1725
     27 C21        -3.0744    0.8032    3.6289 C.2       1 <0>        -0.1085
     28 S1         -3.2655   -0.3620    2.2899 S.3       1 <0>         0.0631
     29 H2         -0.9695   -3.6312   -1.0946 H         1 <0>         0.1342
     30 H3         -1.5432   -2.2084   -1.9973 H         1 <0>         0.1284
     31 H4          0.0907   -2.2150   -1.2911 H         1 <0>         0.1283
     32 H5         -0.9126   -3.6319    1.2457 H         1 <0>         0.1319
     33 H6          0.2951   -2.3269    1.1639 H         1 <0>         0.1268
     34 H7         -1.1656   -2.1265    2.1611 H         1 <0>         0.1242
     35 H8         -1.7256   -0.3839   -2.0237 H         1 <0>         0.1017
     36 H9         -3.1137   -0.0619   -0.9570 H         1 <0>         0.0926
     37 H10        -1.2266    1.9556   -0.4842 H         1 <0>         0.4100
     38 H11        -2.3653    4.2316   -1.3706 H         1 <0>         0.1034
     39 H12        -0.8973    3.8999   -2.3210 H         1 <0>         0.1041
     40 H13        -3.1295    3.7305   -4.0430 H         1 <0>         0.4127
     41 H14        -1.5324    5.6673   -6.2585 H         1 <0>         0.0683
     42 H15        -2.8159    4.4393   -6.1457 H         1 <0>         0.0653
     43 H16        -2.8894    5.6052   -8.3329 H         1 <0>         0.0760
     44 H17        -1.9136    7.7555   -7.5762 H         1 <0>         0.0640
     45 H18        -3.4688    8.0152   -8.4022 H         1 <0>         0.0669
     46 H19        -3.3327    9.3542   -6.3196 H         1 <0>         0.0769
     47 H20        -3.2593    8.1883   -4.1324 H         1 <0>         0.0701
     48 H21        -1.7913    7.8566   -5.0828 H         1 <0>         0.0702
     49 H22        -5.4422    8.5528   -5.2918 H         1 <0>         0.0640
     50 H23        -5.5294    8.4808   -7.0682 H         1 <0>         0.0669
     51 H24        -6.4180    6.4024   -6.0486 H         1 <0>         0.0760
     52 H25        -5.2705    6.2915   -8.2439 H         1 <0>         0.0677
     53 H26        -4.9989    4.8038   -7.3052 H         1 <0>         0.0629
     54 H27        -4.8765    4.9049   -4.8117 H         1 <0>         0.0653
     55 H28        -5.0610    6.4646   -3.9741 H         1 <0>         0.0682
     56 H29        -0.3555    1.5504    1.8338 H         1 <0>         0.1455
     57 H30        -1.5289    2.2251    3.9100 H         1 <0>         0.1537
     58 H31        -3.7106    0.9638    4.4868 H         1 <0>         0.2018
     59 H32        -2.4592   -2.1783    0.1585 H         1 <0>         0.4265
@<TRIPOS>BOND
     1    1    2 1
     2    1   29 1
     3    1   30 1
     4    1   31 1
     5    2    3 1
     6    2    4 1
     7    2   59 1
     8    3   32 1
     9    3   33 1
    10    3   34 1
    11    4    5 1
    12    4    6 1
    13    4   24 1
    14    6    7 1
    15    6   35 1
    16    6   36 1
    17    7    8 am
    18    7   37 1
    19    8    9 2
    20    8   10 1
    21   10   11 1
    22   10   38 1
    23   10   39 1
    24   11   12 am
    25   11   40 1
    26   12   13 2
    27   12   14 1
    28   14   19 1
    29   14   23 1
    30   14   15 1
    31   15   16 1
    32   15   41 1
    33   15   42 1
    34   16   22 1
    35   16   17 1
    36   16   43 1
    37   17   18 1
    38   17   44 1
    39   17   45 1
    40   18   19 1
    41   18   20 1
    42   18   46 1
    43   19   47 1
    44   19   48 1
    45   20   21 1
    46   20   49 1
    47   20   50 1
    48   21   22 1
    49   21   23 1
    50   21   51 1
    51   22   52 1
    52   22   53 1
    53   23   54 1
    54   23   55 1
    55   24   28 1
    56   24   25 2
    57   25   26 1
    58   25   56 1
    59   26   27 2
    60   26   57 1
    61   27   28 1
    62   27   58 1
@<TRIPOS>MOLECULE
ZINC64155872
   56    60     0     0     0
SMALL
USER_CHARGES

@<TRIPOS>ATOM
      1 C1         -0.0164    1.3567    0.0095 C.ar      1 <0>        -0.1133
      2 C2          1.1739    2.0798    0.0020 C.ar      1 <0>        -0.1227
      3 C3          2.3804    1.4476    0.0310 C.ar      1 <0>        -0.1087
      4 C4          2.4430    0.0503    0.1245 C.ar      1 <0>        -0.0731
      5 C5          1.2319   -0.6820   -0.0077 C.ar      1 <0>        -0.0299
      6 C6          0.0021   -0.0041    0.0020 C.ar      1 <0>        -0.1073
      7 C7          1.2879   -2.0744   -0.1827 C.ar      1 <0>        -0.1396
      8 C8          2.4857   -2.7130   -0.1480 C.ar      1 <0>        -0.0806
      9 C9          3.6714   -2.0231    0.1213 C.ar      1 <0>        -0.1284
     10 C10         3.6413   -0.6589    0.3360 C.ar      1 <0>         0.2129
     11 N1          4.8021   -0.0430    0.7986 N.pl3     1 <0>        -0.6152
     12 C11         6.0847   -0.5930    0.3221 C.3       1 <0>         0.1381
     13 C12         6.1113   -2.0605    0.7719 C.3       1 <0>         0.0855
     14 H1          6.0234   -2.1075    1.8591 H         1 <0>         0.0760
     15 C13         4.9521   -2.8130    0.1312 C.3       1 <0>        -0.1039
     16 O1          7.3499   -2.6558    0.3745 O.3       1 <0>        -0.5680
     17 C14         4.7960    1.0514    1.7659 C.3       1 <0>         0.1128
     18 C15         4.8685    0.4884    3.1619 C.2       1 <0>         0.4898
     19 O2          4.9202   -0.7116    3.3299 O.2       1 <0>        -0.5131
     20 N2          4.8759    1.3185    4.2238 N.am      1 <0>        -0.7385
     21 C16         4.9463    0.7711    5.5809 C.3       1 <0>         0.1275
     22 C17         4.9399    1.9175    6.5941 C.3       1 <0>        -0.1050
     23 C18         5.0124    1.3545    7.9901 C.2       1 <0>         0.0710
     24 C19         6.1241    1.1839    8.7414 C.ar      1 <0>        -0.1676
     25 C20         7.5442    1.4598    8.4928 C.ar      1 <0>        -0.0123
     26 C21         8.4466    1.1747    9.4589 C.ar      1 <0>        -0.1504
     27 C22         8.0608    0.6234   10.6885 C.ar      1 <0>         0.0550
     28 C23         6.7755    0.3422   10.9904 C.ar      1 <0>        -0.2099
     29 C24         5.7425    0.6020   10.0480 C.ar      1 <0>         0.3278
     30 N3          4.4454    0.4200   10.1024 N.pl3     1 <0>        -0.5849
     31 C25         3.8561    0.8720    8.8371 C.3       1 <0>         0.0602
     32 H2         -0.9608    1.8788    0.0168 H         1 <0>         0.1241
     33 H3          1.1407    3.1590   -0.0282 H         1 <0>         0.1230
     34 H4          3.2796    2.0394   -0.0610 H         1 <0>         0.1242
     35 H5         -0.9246   -0.5595    0.0049 H         1 <0>         0.1285
     36 H6          0.3791   -2.6352   -0.3448 H         1 <0>         0.1271
     37 H7          2.5256   -3.7765   -0.3318 H         1 <0>         0.1224
     38 H8          6.1328   -0.5316   -0.7618 H         1 <0>         0.0785
     39 H9          6.9097   -0.0482    0.7748 H         1 <0>         0.0858
     40 H10         4.7868   -3.7461    0.6786 H         1 <0>         0.0748
     41 H11         5.2189   -3.0678   -0.8989 H         1 <0>         0.0822
     42 H12         7.4379   -3.5855    0.6258 H         1 <0>         0.3821
     43 H13         5.6562    1.6972    1.5895 H         1 <0>         0.1089
     44 H14         3.8787    1.6297    1.6545 H         1 <0>         0.1142
     45 H15         4.8345    2.2782    4.0894 H         1 <0>         0.4056
     46 H16         4.0861    0.1254    5.7573 H         1 <0>         0.0756
     47 H17         5.8636    0.1929    5.6922 H         1 <0>         0.0770
     48 H18         5.8001    2.5633    6.4176 H         1 <0>         0.1163
     49 H19         4.0226    2.4957    6.4827 H         1 <0>         0.1190
     50 H20         7.8636    1.8837    7.5523 H         1 <0>         0.1605
     51 H21         9.4920    1.3769    9.2782 H         1 <0>         0.1583
     52 H22         8.8232    0.4147   11.4244 H         1 <0>         0.1614
     53 H23         6.5304   -0.0827   11.9525 H         1 <0>         0.1609
     54 H24         3.1558    1.6878    9.0166 H         1 <0>         0.1754
     55 H25         3.3493    0.0427    8.3437 H         1 <0>         0.1740
     56 H26         3.9565    0.0518   10.8549 H         1 <0>         0.4562
@<TRIPOS>BOND
     1    1    6 ar
     2    1    2 ar
     3    1   32 1
     4    2    3 ar
     5    2   33 1
     6    3    4 ar
     7    3   34 1
     8    4   10 ar
     9    4    5 ar
    10    5    6 ar
    11    5    7 ar
    12    6   35 1
    13    7    8 ar
    14    7   36 1
    15    8    9 ar
    16    8   37 1
    17    9   15 1
    18    9   10 ar
    19   10   11 1
    20   11   12 1
    21   11   17 1
    22   12   13 1
    23   12   38 1
    24   12   39 1
    25   13   14 1
    26   13   15 1
    27   13   16 1
    28   15   40 1
    29   15   41 1
    30   16   42 1
    31   17   18 1
    32   17   43 1
    33   17   44 1
    34   18   19 2
    35   18   20 am
    36   20   21 1
    37   20   45 1
    38   21   22 1
    39   21   46 1
    40   21   47 1
    41   22   23 1
    42   22   48 1
    43   22   49 1
    44   23   31 1
    45   23   24 2
    46   24   29 ar
    47   24   25 ar
    48   25   26 ar
    49   25   50 1
    50   26   27 ar
    51   26   51 1
    52   27   28 ar
    53   27   52 1
    54   28   29 ar
    55   28   53 1
    56   29   30 2
    57   30   31 1
    58   30   56 1
    59   31   54 1
    60   31   55 1
@<TRIPOS>MOLECULE
ZINC08868538
   51    54     0     0     0
SMALL
USER_CHARGES
8-phenethyl-5-phenyl-10,10-bis(trifluoromethyl)-3,5,7,9-tetrazabicyclo[4.4.0]deca-8,11-diene-2,4-dione
@<TRIPOS>ATOM
      1 C1         -1.4269   11.2737   -1.0775 C.ar      1 <0>        -0.1016
      2 C2         -0.9673   10.9400    0.1828 C.ar      1 <0>        -0.1131
      3 C3          0.0754   10.0435    0.3234 C.ar      1 <0>        -0.1077
      4 C4          0.6590    9.4810   -0.7964 C.ar      1 <0>        -0.1086
      5 C5          0.2032    9.8190   -2.0569 C.ar      1 <0>        -0.1080
      6 C6         -0.8434   10.7111   -2.1973 C.ar      1 <0>        -0.1133
      7 C7          1.7961    8.5040   -0.6432 C.3       1 <0>        -0.1033
      8 C8          1.2372    7.0838   -0.5358 C.3       1 <0>        -0.1278
      9 C9          2.3744    6.1068   -0.3826 C.cat     1 <0>         0.5752
     10 C10         4.7440    5.6865   -0.2110 C.3       1 <0>         0.1266
     11 C11         4.3932    4.2496   -0.4737 C.2       1 <0>        -0.3446
     12 C12         5.4032    3.3013   -0.7088 C.2       1 <0>         0.5720
     13 O1          6.5748    3.6382   -0.7079 O.2       1 <0>        -0.4522
     14 N1          5.0658    2.0159   -0.9350 N.am      1 <0>        -0.6442
     15 H1          5.7818    1.3386   -1.1041 H         1 <0>         0.4621
     16 C13         3.7754    1.6350   -0.9355 C.2       1 <0>         0.7070
     17 O2          3.4952    0.4694   -1.1383 O.2       1 <0>        -0.4660
     18 N2          2.7895    2.5253   -0.7142 N.am      1 <0>        -0.4656
     19 C14         3.0906    3.8465   -0.4890 C.2       1 <0>         0.4929
     20 N3          2.0934    4.7677   -0.2689 N.pl3     1 <0>        -0.5904
     21 C15         1.4533    2.1041   -0.7195 C.ar      1 <0>         0.0450
     22 C16         0.7200    2.1312   -1.8983 C.ar      1 <0>        -0.0860
     23 C17        -0.5971    1.7154   -1.9003 C.ar      1 <0>        -0.1025
     24 C18        -1.1857    1.2727   -0.7299 C.ar      1 <0>        -0.0740
     25 C19        -0.4581    1.2449    0.4457 C.ar      1 <0>        -0.1016
     26 C20         0.8595    1.6591    0.4540 C.ar      1 <0>        -0.0884
     27 C21         5.2840    5.8185    1.2144 C.3       1 <0>         0.4581
     28 F1          6.4256    5.0224    1.3561 F         1 <0>        -0.1202
     29 F2          5.6131    7.1547    1.4665 F         1 <0>        -0.1509
     30 F3          4.3072    5.3991    2.1239 F         1 <0>        -0.1560
     31 C22         5.8261    6.1272   -1.1987 C.3       1 <0>         0.4613
     32 F4          5.4992    5.6742   -2.4814 F         1 <0>        -0.1473
     33 F5          5.9110    7.5237   -1.2049 F         1 <0>        -0.1580
     34 F6          7.0575    5.5869   -0.8131 F         1 <0>        -0.1062
     35 H2         -2.2421   11.9735   -1.1872 H         1 <0>         0.1300
     36 H3         -1.4232   11.3796    1.0577 H         1 <0>         0.1303
     37 H4          0.4345    9.7829    1.3080 H         1 <0>         0.1260
     38 H5          0.6620    9.3828   -2.9320 H         1 <0>         0.1252
     39 H6         -1.2027   10.9715   -3.1819 H         1 <0>         0.1300
     40 H7          2.3603    8.7416    0.2586 H         1 <0>         0.0981
     41 H8          2.4525    8.5715   -1.5108 H         1 <0>         0.0962
     42 H9          0.6730    6.8461   -1.4376 H         1 <0>         0.1631
     43 H10         0.5809    7.0163    0.3318 H         1 <0>         0.1623
     44 H11         1.1980    4.4741   -0.0387 H         1 <0>         0.4688
     45 H12         1.1792    2.4765   -2.8128 H         1 <0>         0.1356
     46 H13        -1.1665    1.7318   -2.8178 H         1 <0>         0.1462
     47 H14        -2.2158    0.9484   -0.7339 H         1 <0>         0.1448
     48 H15        -0.9205    0.8987    1.3582 H         1 <0>         0.1469
     49 H16         1.4274    1.6365    1.3724 H         1 <0>         0.1376
     50 N4          3.5896    6.6406   -0.3712 N.pl3     1 <0>        -0.5979
     51 H17         3.7352    7.6525   -0.4667 H         1 <0>         0.4942
@<TRIPOS>BOND
     1    1    6 ar
     2    1    2 ar
     3    1   35 1
     4    2    3 ar
     5    2   36 1
     6    3    4 ar
     7    3   37 1
     8    4    5 ar
     9    4    7 1
    10    5    6 ar
    11    5   38 1
    12    6   39 1
    13    7    8 1
    14    7   40 1
    15    7   41 1
    16    8    9 1
    17    8   42 1
    18    8   43 1
    19    9   20 1
    20    9   50 2
    21   10   11 1
    22   10   27 1
    23   10   31 1
    24   10   50 1
    25   11   19 2
    26   11   12 1
    27   12   13 2
    28   12   14 am
    29   14   15 1
    30   14   16 am
    31   16   17 2
    32   16   18 am
    33   18   19 1
    34   18   21 1
    35   19   20 1
    36   20   44 1
    37   21   26 ar
    38   21   22 ar
    39   22   23 ar
    40   22   45 1
    41   23   24 ar
    42   23   46 1
    43   24   25 ar
    44   24   47 1
    45   25   26 ar
    46   25   48 1
    47   26   49 1
    48   27   28 1
    49   27   29 1
    50   27   30 1
    51   31   32 1
    52   31   33 1
    53   31   34 1
    54   50   51 1
@<TRIPOS>MOLECULE
ZINC39609795
   69    72     0     0     0
SMALL
USER_CHARGES

@<TRIPOS>ATOM
      1 C1         -1.0230    1.3781    0.1759 C.3       1 <0>        -0.1518
      2 C2         -0.7128   -0.0962    0.4420 C.3       1 <0>        -0.1062
      3 C3          0.4241   -0.2024    1.4604 C.3       1 <0>        -0.1603
      4 C4         -1.9600   -0.7879    0.9960 C.3       1 <0>         0.0758
      5 H1         -2.2836   -0.2803    1.9047 H         1 <0>         0.1022
      6 C5         -1.6386   -2.2261    1.3114 C.2       1 <0>         0.5510
      7 O1         -1.9046   -3.0967    0.5100 O.2       1 <0>        -0.5070
      8 N1         -1.0555   -2.5448    2.4839 N.am      1 <0>        -0.6153
      9 C6         -0.7668   -1.6483    3.6281 C.3       1 <0>         0.1097
     10 C7         -1.0819   -2.4983    4.8793 C.3       1 <0>        -0.1161
     11 H2         -0.3660   -2.2851    5.6731 H         1 <0>         0.1191
     12 C8         -0.9415   -3.9558    4.4090 C.3       1 <0>        -0.0717
     13 C9         -0.5639   -3.8728    2.9230 C.3       1 <0>         0.1068
     14 C10        -2.2675   -4.6930    4.5697 C.3       1 <0>        -0.1468
     15 C11        -2.0878   -6.1545    4.1494 C.3       1 <0>        -0.0096
     16 N2         -1.0528   -6.7808    4.9808 N.4       1 <0>        -0.5046
     17 C12         0.2398   -6.1246    4.7505 C.3       1 <0>        -0.0103
     18 C13         0.1585   -4.6618    5.1959 C.3       1 <0>        -0.1338
     19 C14        -2.4866   -2.2311    5.3551 C.2       1 <0>         0.5148
     20 O2         -3.3577   -1.9649    4.5544 O.2       1 <0>        -0.5135
     21 N3         -2.7748   -2.2879    6.6705 N.am      1 <0>        -0.7254
     22 C15        -4.1404   -2.0281    7.1330 C.3       1 <0>         0.1616
     23 C16        -4.1948   -2.1536    8.6338 C.ar      1 <0>        -0.1019
     24 C17        -4.4720   -3.3771    9.2152 C.ar      1 <0>        -0.0874
     25 C18        -4.5226   -3.4935   10.5914 C.ar      1 <0>        -0.0991
     26 C19        -4.2955   -2.3855   11.3881 C.ar      1 <0>        -0.0222
     27 C20        -4.0175   -1.1606   10.8060 C.ar      1 <0>        -0.0324
     28 C21        -3.9621   -1.0470    9.4283 C.ar      1 <0>        -0.0787
     29 Cl1        -3.7329    0.2308   11.8043 Cl        1 <0>        -0.0327
     30 Cl2        -4.3596   -2.5310   13.1168 Cl        1 <0>        -0.0331
     31 O3         -3.0054   -0.7358    0.0232 O.3       1 <0>        -0.2839
     32 C22        -3.9749    0.1983    0.2088 C.ar      1 <0>         0.1249
     33 C23        -5.0847    0.2227   -0.6234 C.ar      1 <0>        -0.1471
     34 C24        -6.0690    1.1730   -0.4323 C.ar      1 <0>        -0.0778
     35 C25        -5.9486    2.0995    0.5869 C.ar      1 <0>        -0.1527
     36 C26        -4.8433    2.0776    1.4173 C.ar      1 <0>        -0.0791
     37 C27        -3.8592    1.1255    1.2343 C.ar      1 <0>        -0.2077
     38 H3         -0.1345    1.8709   -0.2188 H         1 <0>         0.0682
     39 H4         -1.8330    1.4538   -0.5496 H         1 <0>         0.0650
     40 H5         -1.3227    1.8601    1.1065 H         1 <0>         0.0589
     41 H6         -0.4132   -0.5782   -0.4886 H         1 <0>         0.0901
     42 H7          0.1451    0.3248    2.3727 H         1 <0>         0.0611
     43 H8          0.6098   -1.2518    1.6895 H         1 <0>         0.0618
     44 H9          1.3273    0.2440    1.0444 H         1 <0>         0.0723
     45 H10         0.2823   -1.3525    3.6239 H         1 <0>         0.0986
     46 H11        -1.4104   -0.7692    3.5939 H         1 <0>         0.0945
     47 H12        -1.0572   -4.6659    2.3611 H         1 <0>         0.0900
     48 H13         0.5177   -3.9366    2.8035 H         1 <0>         0.0870
     49 H14        -2.5837   -4.6503    5.6119 H         1 <0>         0.0941
     50 H15        -3.0234   -4.2236    3.9400 H         1 <0>         0.1255
     51 H16        -3.0295   -6.6879    4.2786 H         1 <0>         0.1387
     52 H17        -1.7874   -6.1969    3.1024 H         1 <0>         0.1349
     53 H18        -1.3052   -6.6915    5.9537 H         1 <0>         0.4272
     54 H19         1.0137   -6.6360    5.3230 H         1 <0>         0.1405
     55 H20         0.4850   -6.1679    3.6893 H         1 <0>         0.1333
     56 H21         1.1131   -4.1705    5.0078 H         1 <0>         0.1227
     57 H22        -0.0704   -4.6178    6.2607 H         1 <0>         0.0980
     58 H23        -2.0781   -2.5008    7.3109 H         1 <0>         0.4024
     59 H24        -4.4371   -1.0205    6.8417 H         1 <0>         0.0864
     60 H25        -4.8202   -2.7515    6.6830 H         1 <0>         0.0849
     61 H26        -4.6493   -4.2422    8.5935 H         1 <0>         0.1371
     62 H27        -4.7399   -4.4493   11.0448 H         1 <0>         0.1470
     63 H28        -3.7413   -0.0926    8.9736 H         1 <0>         0.1458
     64 H29        -5.1788   -0.5003   -1.4201 H         1 <0>         0.1318
     65 H30        -6.9332    1.1924   -1.0799 H         1 <0>         0.1322
     66 H31        -6.7191    2.8418    0.7344 H         1 <0>         0.1264
     67 H32        -4.7514    2.8026    2.2125 H         1 <0>         0.1252
     68 H33        -2.9982    1.1060    1.8859 H         1 <0>         0.1260
     69 H34        -0.9790   -7.7588    4.7437 H         1 <0>         0.4346
@<TRIPOS>BOND
     1    1    2 1
     2    1   38 1
     3    1   39 1
     4    1   40 1
     5    2    3 1
     6    2    4 1
     7    2   41 1
     8    3   42 1
     9    3   43 1
    10    3   44 1
    11    4    5 1
    12    4    6 1
    13    4   31 1
    14    6    7 2
    15    6    8 am
    16    8   13 1
    17    8    9 1
    18    9   10 1
    19    9   45 1
    20    9   46 1
    21   10   11 1
    22   10   12 1
    23   10   19 1
    24   12   18 1
    25   12   13 1
    26   12   14 1
    27   13   47 1
    28   13   48 1
    29   14   15 1
    30   14   49 1
    31   14   50 1
    32   15   16 1
    33   15   51 1
    34   15   52 1
    35   16   17 1
    36   16   53 1
    37   16   69 1
    38   17   18 1
    39   17   54 1
    40   17   55 1
    41   18   56 1
    42   18   57 1
    43   19   20 2
    44   19   21 am
    45   21   22 1
    46   21   58 1
    47   22   23 1
    48   22   59 1
    49   22   60 1
    50   23   28 ar
    51   23   24 ar
    52   24   25 ar
    53   24   61 1
    54   25   26 ar
    55   25   62 1
    56   26   27 ar
    57   26   30 1
    58   27   28 ar
    59   27   29 1
    60   28   63 1
    61   31   32 1
    62   32   37 ar
    63   32   33 ar
    64   33   34 ar
    65   33   64 1
    66   34   35 ar
    67   34   65 1
    68   35   36 ar
    69   35   66 1
    70   36   37 ar
    71   36   67 1
    72   37   68 1
@<TRIPOS>MOLECULE
ZINC39654242
   75    80     0     0     0
SMALL
USER_CHARGES

@<TRIPOS>ATOM
      1 C1          1.8643    2.1140    0.4413 C.3       1 <0>        -0.1479
      2 C2          3.3742    1.9566    0.6319 C.3       1 <0>        -0.0906
      3 C3          4.0006    1.5122   -0.6647 C.ar      1 <0>        -0.0733
      4 C4          4.1237    0.1646   -0.9467 C.ar      1 <0>        -0.1137
      5 C5          4.6982   -0.2430   -2.1361 C.ar      1 <0>        -0.1080
      6 C6          5.1493    0.6971   -3.0436 C.ar      1 <0>        -0.0986
      7 C7          5.0254    2.0448   -2.7620 C.ar      1 <0>        -0.1107
      8 C8          4.4470    2.4524   -1.5745 C.ar      1 <0>        -0.1161
      9 C9          5.7766    0.2528   -4.3398 C.3       1 <0>        -0.0857
     10 C10         4.6922    0.1147   -5.4103 C.3       1 <0>         0.1225
     11 N1          5.3020   -0.3173   -6.6703 N.am      1 <0>        -0.7304
     12 C11         4.5333   -0.5060   -7.7612 C.2       1 <0>         0.5122
     13 O1          3.3367   -0.3182   -7.6996 O.2       1 <0>        -0.5105
     14 C12         5.1606   -0.9503   -9.0573 C.3       1 <0>        -0.1151
     15 H1          6.0632   -1.5295   -8.8624 H         1 <0>         0.1182
     16 C13         4.1552   -1.7830   -9.8840 C.3       1 <0>         0.1097
     17 N2          3.5323   -0.8072  -10.8091 N.am      1 <0>        -0.6124
     18 C14         4.6500    0.0753  -11.2214 C.3       1 <0>         0.1082
     19 C15         5.4854    0.2665   -9.9399 C.3       1 <0>        -0.0729
     20 C16         5.0778    1.5557   -9.2331 C.3       1 <0>        -0.1472
     21 C17         5.4623    2.7540  -10.1055 C.3       1 <0>        -0.0096
     22 N3          6.9103    2.7412  -10.3467 N.4       1 <0>        -0.5046
     23 C18         7.2808    1.5422  -11.1081 C.3       1 <0>        -0.0102
     24 C19         6.9727    0.2927  -10.2782 C.3       1 <0>        -0.1336
     25 C20         2.2413   -0.7377  -11.1898 C.2       1 <0>         0.5973
     26 O2          1.8978    0.0717  -12.0293 O.2       1 <0>        -0.5163
     27 C21         1.2436   -1.6452  -10.5871 C.ar      1 <0>        -0.1152
     28 C22         1.4855   -3.0230  -10.5386 C.ar      1 <0>        -0.0623
     29 C23         0.5571   -3.8719   -9.9766 C.ar      1 <0>        -0.1247
     30 C24        -0.6257   -3.3722   -9.4538 C.ar      1 <0>        -0.0208
     31 C25        -0.8857   -2.0073   -9.4924 C.ar      1 <0>        -0.1727
     32 C26         0.0540   -1.1300  -10.0564 C.ar      1 <0>         0.0370
     33 C27        -0.4697    0.2555   -9.9602 C.ar      1 <0>        -0.0320
     34 C28         0.0557    1.4752  -10.3659 C.ar      1 <0>        -0.0880
     35 C29        -0.6575    2.6441  -10.1494 C.ar      1 <0>        -0.0927
     36 C30        -1.8918    2.6061   -9.5308 C.ar      1 <0>        -0.1153
     37 C31        -2.4300    1.3970   -9.1199 C.ar      1 <0>        -0.0468
     38 C32        -1.7259    0.2182   -9.3313 C.ar      1 <0>        -0.1662
     39 C33        -2.0366   -1.1987   -9.0240 C.2       1 <0>         0.4486
     40 O3         -3.0381   -1.6164   -8.4792 O.2       1 <0>        -0.4087
     41 H2          1.6713    2.8598   -0.3298 H         1 <0>         0.0551
     42 H3          1.4347    1.1590    0.1388 H         1 <0>         0.0561
     43 H4          1.4112    2.4354    1.3791 H         1 <0>         0.0618
     44 H5          3.8037    2.9116    0.9345 H         1 <0>         0.0737
     45 H6          3.5672    1.2108    1.4030 H         1 <0>         0.0745
     46 H7          3.7712   -0.5699   -0.2377 H         1 <0>         0.1246
     47 H8          4.7950   -1.2959   -2.3561 H         1 <0>         0.1220
     48 H9          5.3782    2.7792   -3.4709 H         1 <0>         0.1180
     49 H10         4.3468    3.5053   -1.3561 H         1 <0>         0.1230
     50 H11         6.5113    0.9916   -4.6600 H         1 <0>         0.0754
     51 H12         6.2683   -0.7092   -4.1946 H         1 <0>         0.0802
     52 H13         3.9576   -0.6242   -5.0901 H         1 <0>         0.0742
     53 H14         4.2005    1.0766   -5.5555 H         1 <0>         0.0711
     54 H15         6.2591   -0.4674   -6.7196 H         1 <0>         0.3993
     55 H16         4.6753   -2.5596  -10.4446 H         1 <0>         0.0931
     56 H17         3.4007   -2.2240   -9.2325 H         1 <0>         0.1017
     57 H18         5.2479   -0.4047  -11.9960 H         1 <0>         0.0877
     58 H19         4.2681    1.0336  -11.5734 H         1 <0>         0.0889
     59 H20         4.0001    1.5559   -9.0692 H         1 <0>         0.1237
     60 H21         5.5922    1.6235   -8.2745 H         1 <0>         0.0958
     61 H22         4.9351    2.6940  -11.0577 H         1 <0>         0.1344
     62 H23         5.1872    3.6774   -9.5959 H         1 <0>         0.1385
     63 H24         7.1700    3.5639  -10.8700 H         1 <0>         0.4345
     64 H25         6.7106    1.5111  -12.0365 H         1 <0>         0.1333
     65 H26         8.3460    1.5724  -11.3373 H         1 <0>         0.1405
     66 H27         7.5551    0.3149   -9.3571 H         1 <0>         0.0980
     67 H28         7.2312   -0.5977  -10.8514 H         1 <0>         0.1226
     68 H29         2.4035   -3.4225  -10.9437 H         1 <0>         0.1365
     69 H30         0.7520   -4.9336   -9.9434 H         1 <0>         0.1455
     70 H31        -1.3475   -4.0455   -9.0156 H         1 <0>         0.1433
     71 H32         1.0204    1.5132  -10.8500 H         1 <0>         0.1364
     72 H33        -0.2450    3.5906  -10.4661 H         1 <0>         0.1324
     73 H34        -2.4394    3.5223   -9.3663 H         1 <0>         0.1381
     74 H35        -3.3951    1.3711   -8.6359 H         1 <0>         0.1380
     75 H36         7.3971    2.7405   -9.4629 H         1 <0>         0.4276
@<TRIPOS>BOND
     1    1    2 1
     2    1   41 1
     3    1   42 1
     4    1   43 1
     5    2    3 1
     6    2   44 1
     7    2   45 1
     8    3    8 ar
     9    3    4 ar
    10    4    5 ar
    11    4   46 1
    12    5    6 ar
    13    5   47 1
    14    6    7 ar
    15    6    9 1
    16    7    8 ar
    17    7   48 1
    18    8   49 1
    19    9   10 1
    20    9   50 1
    21    9   51 1
    22   10   11 1
    23   10   52 1
    24   10   53 1
    25   11   12 am
    26   11   54 1
    27   12   13 2
    28   12   14 1
    29   14   15 1
    30   14   19 1
    31   14   16 1
    32   16   17 1
    33   16   55 1
    34   16   56 1
    35   17   18 1
    36   17   25 am
    37   18   19 1
    38   18   57 1
    39   18   58 1
    40   19   24 1
    41   19   20 1
    42   20   21 1
    43   20   59 1
    44   20   60 1
    45   21   22 1
    46   21   61 1
    47   21   62 1
    48   22   23 1
    49   22   63 1
    50   22   75 1
    51   23   24 1
    52   23   64 1
    53   23   65 1
    54   24   66 1
    55   24   67 1
    56   25   26 2
    57   25   27 1
    58   27   32 ar
    59   27   28 ar
    60   28   29 ar
    61   28   68 1
    62   29   30 ar
    63   29   69 1
    64   30   31 ar
    65   30   70 1
    66   31   39 1
    67   31   32 ar
    68   32   33 1
    69   33   38 ar
    70   33   34 ar
    71   34   35 ar
    72   34   71 1
    73   35   36 ar
    74   35   72 1
    75   36   37 ar
    76   36   73 1
    77   37   38 ar
    78   37   74 1
    79   38   39 1
    80   39   40 2
@<TRIPOS>MOLECULE
ZINC39666104
   69    72     0     0     0
SMALL
USER_CHARGES

@<TRIPOS>ATOM
      1 C1          2.7712   -6.3881    9.8577 C.3       1 <0>        -0.1158
      2 C2          2.4144   -6.3338    8.3946 C.ar      1 <0>        -0.1163
      3 C3          2.0903   -7.4962    7.7197 C.ar      1 <0>        -0.0819
      4 C4          1.7633   -7.4492    6.3783 C.ar      1 <0>        -0.2076
      5 C5          1.7599   -6.2342    5.7086 C.ar      1 <0>         0.1177
      6 C6          2.0851   -5.0693    6.3881 C.ar      1 <0>        -0.1450
      7 C7          2.4063   -5.1210    7.7307 C.ar      1 <0>        -0.0790
      8 O1          1.4391   -6.1854    4.3889 O.3       1 <0>        -0.3079
      9 C8          1.2274   -7.4335    3.7261 C.3       1 <0>         0.0737
     10 H1          1.9048   -8.1823    4.1365 H         1 <0>         0.0775
     11 C9         -0.2194   -7.8842    3.9373 C.3       1 <0>        -0.1827
     12 C10         1.4966   -7.2681    2.2290 C.3       1 <0>         0.1215
     13 N1          2.9119   -6.9530    2.0193 N.am      1 <0>        -0.7244
     14 C11         3.3821   -6.7630    0.7706 C.2       1 <0>         0.5215
     15 O2          2.6336   -6.8528   -0.1794 O.2       1 <0>        -0.5184
     16 C12         4.8379   -6.4388    0.5548 C.3       1 <0>        -0.1123
     17 H2          5.2387   -5.9045    1.4162 H         1 <0>         0.1133
     18 C13         5.0175   -5.5996   -0.7300 C.3       1 <0>         0.1114
     19 N2          6.2798   -6.0952   -1.3275 N.am      1 <0>        -0.6129
     20 C14         6.2404   -7.5611   -1.1092 C.3       1 <0>         0.1096
     21 C15         5.6412   -7.7256    0.3017 C.3       1 <0>        -0.0721
     22 C16         4.7198   -8.9408    0.3445 C.3       1 <0>        -0.1468
     23 C17         5.5500  -10.2125    0.1484 C.3       1 <0>        -0.0078
     24 N3          6.5642  -10.3049    1.2055 N.4       1 <0>        -0.5043
     25 C18         7.5022   -9.1807    1.0990 C.3       1 <0>        -0.0114
     26 C19         6.7545   -7.8654    1.3353 C.3       1 <0>        -0.1354
     27 C20         7.2458   -5.3758   -1.9323 C.2       1 <0>         0.5996
     28 O3          8.2310   -5.9330   -2.3762 O.2       1 <0>        -0.5049
     29 C21         7.1076   -3.9113   -2.0557 C.ar      1 <0>        -0.1569
     30 C22         7.6060   -3.0716   -1.0552 C.ar      1 <0>         0.0111
     31 C23         7.4734   -1.7032   -1.1780 C.ar      1 <0>        -0.1116
     32 C24         6.8487   -1.1609   -2.2874 C.ar      1 <0>        -0.0580
     33 C25         6.3524   -1.9834   -3.2816 C.ar      1 <0>        -0.1057
     34 C26         6.4826   -3.3561   -3.1769 C.ar      1 <0>         0.1436
     35 F1          6.0023   -4.1587   -4.1517 F         1 <0>        -0.1190
     36 C27         5.6735   -1.3823   -4.4853 C.3       1 <0>        -0.1217
     37 Cl1         8.3891   -3.7484    0.3384 Cl        1 <0>        -0.0467
     38 H3          1.8677   -6.2732   10.4565 H         1 <0>         0.0722
     39 H4          3.2366   -7.3477   10.0829 H         1 <0>         0.0659
     40 H5          3.4673   -5.5828   10.0921 H         1 <0>         0.0678
     41 H6          2.0930   -8.4418    8.2415 H         1 <0>         0.1251
     42 H7          1.5108   -8.3575    5.8514 H         1 <0>         0.1271
     43 H8          2.0832   -4.1223    5.8690 H         1 <0>         0.1310
     44 H9          2.6553   -4.2138    8.2613 H         1 <0>         0.1315
     45 H10        -0.8968   -7.1354    3.5269 H         1 <0>         0.0760
     46 H11        -0.3808   -8.8363    3.4317 H         1 <0>         0.0770
     47 H12        -0.4112   -8.0021    5.0038 H         1 <0>         0.0730
     48 H13         1.2501   -8.1949    1.7110 H         1 <0>         0.0929
     49 H14         0.8820   -6.4579    1.8367 H         1 <0>         0.0874
     50 H15         3.5105   -6.8811    2.7791 H         1 <0>         0.4024
     51 H16         4.1835   -5.7654   -1.4119 H         1 <0>         0.1036
     52 H17         5.1035   -4.5413   -0.4837 H         1 <0>         0.0916
     53 H18         5.6026   -8.0394   -1.8526 H         1 <0>         0.0891
     54 H19         7.2467   -7.9783   -1.1451 H         1 <0>         0.0916
     55 H20         4.2151   -8.9810    1.3098 H         1 <0>         0.0966
     56 H21         3.9787   -8.8638   -0.4512 H         1 <0>         0.1275
     57 H22         4.8964  -11.0836    0.1952 H         1 <0>         0.1399
     58 H23         6.0411  -10.1792   -0.8241 H         1 <0>         0.1342
     59 H24         6.1118  -10.2794    2.1070 H         1 <0>         0.4272
     60 H25         8.2878   -9.2912    1.8464 H         1 <0>         0.1404
     61 H26         7.9468   -9.1719    0.1038 H         1 <0>         0.1350
     62 H27         7.4481   -7.0302    1.2383 H         1 <0>         0.1183
     63 H28         6.3235   -7.8668    2.3365 H         1 <0>         0.0971
     64 H29         7.8581   -1.0536   -0.4056 H         1 <0>         0.1521
     65 H30         6.7481   -0.0893   -2.3769 H         1 <0>         0.1539
     66 H31         6.4134   -1.1933   -5.2631 H         1 <0>         0.0850
     67 H32         4.9202   -2.0747   -4.8610 H         1 <0>         0.0762
     68 H33         5.1959   -0.4443   -4.2024 H         1 <0>         0.0830
     69 H34         7.0695  -11.1730    1.1100 H         1 <0>         0.4346
@<TRIPOS>BOND
     1    1    2 1
     2    1   38 1
     3    1   39 1
     4    1   40 1
     5    2    7 ar
     6    2    3 ar
     7    3    4 ar
     8    3   41 1
     9    4    5 ar
    10    4   42 1
    11    5    6 ar
    12    5    8 1
    13    6    7 ar
    14    6   43 1
    15    7   44 1
    16    8    9 1
    17    9   10 1
    18    9   11 1
    19    9   12 1
    20   11   45 1
    21   11   46 1
    22   11   47 1
    23   12   13 1
    24   12   48 1
    25   12   49 1
    26   13   14 am
    27   13   50 1
    28   14   15 2
    29   14   16 1
    30   16   17 1
    31   16   21 1
    32   16   18 1
    33   18   19 1
    34   18   51 1
    35   18   52 1
    36   19   20 1
    37   19   27 am
    38   20   21 1
    39   20   53 1
    40   20   54 1
    41   21   26 1
    42   21   22 1
    43   22   23 1
    44   22   55 1
    45   22   56 1
    46   23   24 1
    47   23   57 1
    48   23   58 1
    49   24   25 1
    50   24   59 1
    51   24   69 1
    52   25   26 1
    53   25   60 1
    54   25   61 1
    55   26   62 1
    56   26   63 1
    57   27   28 2
    58   27   29 1
    59   29   34 ar
    60   29   30 ar
    61   30   31 ar
    62   30   37 1
    63   31   32 ar
    64   31   64 1
    65   32   33 ar
    66   32   65 1
    67   33   34 ar
    68   33   36 1
    69   34   35 1
    70   36   66 1
    71   36   67 1
    72   36   68 1
@<TRIPOS>MOLECULE
ZINC39695210
   72    77     0     0     0
SMALL
USER_CHARGES

@<TRIPOS>ATOM
      1 C1         -2.7448    1.8826   -1.9020 C.3       1 <0>        -0.1578
      2 C2         -1.2677    1.7023   -1.5465 C.3       1 <0>        -0.1290
      3 C3         -1.1336    0.6536   -0.4405 C.3       1 <0>         0.1849
      4 H1         -1.6348   -0.2643   -0.7475 H         1 <0>         0.1074
      5 C4          0.3253    0.3702   -0.1912 C.ar      1 <0>        -0.1031
      6 C5          1.0732    1.2315    0.5897 C.ar      1 <0>        -0.1161
      7 C6          2.4115    0.9714    0.8183 C.ar      1 <0>        -0.1154
      8 C7          3.0018   -0.1501    0.2665 C.ar      1 <0>        -0.1123
      9 C8          2.2537   -1.0119   -0.5136 C.ar      1 <0>        -0.1104
     10 C9          0.9144   -0.7542   -0.7388 C.ar      1 <0>        -0.1057
     11 N1         -1.7499    1.1589    0.7888 N.am      1 <0>        -0.7191
     12 C10        -2.9995    0.7792    1.1215 C.2       1 <0>         0.5220
     13 O1         -3.6509    0.1001    0.3563 O.2       1 <0>        -0.5159
     14 C11        -3.5875    1.1985    2.4442 C.3       1 <0>        -0.1149
     15 H2         -2.7983    1.3324    3.1840 H         1 <0>         0.1123
     16 C12        -4.6119    0.1505    2.9340 C.3       1 <0>         0.1063
     17 N2         -5.6886    0.9472    3.5679 N.am      1 <0>        -0.6175
     18 C13        -5.8385    2.1307    2.6876 C.3       1 <0>         0.1097
     19 C14        -4.3965    2.4964    2.2832 C.3       1 <0>        -0.0722
     20 C15        -3.8477    3.5792    3.2074 C.3       1 <0>        -0.1353
     21 C16        -4.6318    4.8761    2.9882 C.3       1 <0>        -0.0115
     22 N3         -4.5091    5.2930    1.5860 N.4       1 <0>        -0.5046
     23 C17        -5.1224    4.2883    0.7091 C.3       1 <0>        -0.0085
     24 C18        -4.3593    2.9663    0.8323 C.3       1 <0>        -0.1538
     25 C19        -6.3763    0.6607    4.6910 C.2       1 <0>         0.5918
     26 O2         -7.2953    1.3758    5.0402 O.2       1 <0>        -0.5122
     27 C20        -6.0134   -0.5224    5.4977 C.ar      1 <0>        -0.1234
     28 C21        -5.8415   -1.7674    4.8815 C.ar      1 <0>        -0.0602
     29 C22        -5.5026   -2.8725    5.6312 C.ar      1 <0>        -0.1230
     30 C23        -5.3285   -2.7647    7.0024 C.ar      1 <0>        -0.0185
     31 C24        -5.4950   -1.5377    7.6339 C.ar      1 <0>        -0.1733
     32 C25        -5.8342   -0.4020    6.8817 C.ar      1 <0>         0.0319
     33 C26        -5.9402    0.7617    7.7970 C.ar      1 <0>        -0.0371
     34 C27        -6.2500    2.0958    7.5680 C.ar      1 <0>        -0.0910
     35 C28        -6.2794    2.9923    8.6249 C.ar      1 <0>        -0.0923
     36 C29        -6.0020    2.5684    9.9098 C.ar      1 <0>        -0.1138
     37 C30        -5.6911    1.2404   10.1551 C.ar      1 <0>        -0.0462
     38 C31        -5.6587    0.3316    9.1050 C.ar      1 <0>        -0.1655
     39 C32        -5.3791   -1.1237    9.0527 C.2       1 <0>         0.4474
     40 O3         -5.0952   -1.8384    9.9924 O.2       1 <0>        -0.4064
     41 H3         -2.8455    2.6715   -2.6474 H         1 <0>         0.0539
     42 H4         -3.1381    0.9494   -2.3052 H         1 <0>         0.0634
     43 H5         -3.3033    2.1555   -1.0066 H         1 <0>         0.0541
     44 H6         -0.7194    1.3720   -2.4288 H         1 <0>         0.0801
     45 H7         -0.8591    2.6512   -1.1990 H         1 <0>         0.0638
     46 H8          0.6120    2.1077    1.0208 H         1 <0>         0.1132
     47 H9          2.9959    1.6447    1.4278 H         1 <0>         0.1246
     48 H10         4.0475   -0.3529    0.4446 H         1 <0>         0.1266
     49 H11         2.7150   -1.8880   -0.9451 H         1 <0>         0.1282
     50 H12         0.3290   -1.4294   -1.3452 H         1 <0>         0.1256
     51 H13        -1.2586    1.7667    1.3633 H         1 <0>         0.3983
     52 H14        -5.0057   -0.4184    2.0918 H         1 <0>         0.1044
     53 H15        -4.1534   -0.5170    3.6635 H         1 <0>         0.0966
     54 H16        -6.4290    1.8776    1.8070 H         1 <0>         0.0880
     55 H17        -6.3003    2.9541    3.2325 H         1 <0>         0.0904
     56 H18        -3.9539    3.2606    4.2444 H         1 <0>         0.1186
     57 H19        -2.7943    3.7486    2.9842 H         1 <0>         0.0968
     58 H20        -5.6822    4.7102    3.2271 H         1 <0>         0.1345
     59 H21        -4.2312    5.6564    3.6354 H         1 <0>         0.1404
     60 H22        -4.9751    6.1787    1.4579 H         1 <0>         0.4348
     61 H23        -6.1613    4.1364    1.0019 H         1 <0>         0.1346
     62 H24        -5.0834    4.6352   -0.3234 H         1 <0>         0.1400
     63 H25        -3.3243    3.1135    0.5238 H         1 <0>         0.1016
     64 H26        -4.8264    2.2158    0.1946 H         1 <0>         0.1305
     65 H27        -5.9754   -1.8622    3.8141 H         1 <0>         0.1394
     66 H28        -5.3719   -3.8293    5.1475 H         1 <0>         0.1471
     67 H29        -5.0632   -3.6367    7.5817 H         1 <0>         0.1447
     68 H30        -6.4677    2.4351    6.5660 H         1 <0>         0.1391
     69 H31        -6.5204    4.0291    8.4424 H         1 <0>         0.1337
     70 H32        -6.0272    3.2747   10.7265 H         1 <0>         0.1389
     71 H33        -5.4741    0.9125   11.1610 H         1 <0>         0.1387
     72 H34        -3.5331    5.3924    1.3503 H         1 <0>         0.4276
@<TRIPOS>BOND
     1    1    2 1
     2    1   41 1
     3    1   42 1
     4    1   43 1
     5    2    3 1
     6    2   44 1
     7    2   45 1
     8    3    4 1
     9    3    5 1
    10    3   11 1
    11    5   10 ar
    12    5    6 ar
    13    6    7 ar
    14    6   46 1
    15    7    8 ar
    16    7   47 1
    17    8    9 ar
    18    8   48 1
    19    9   10 ar
    20    9   49 1
    21   10   50 1
    22   11   12 am
    23   11   51 1
    24   12   13 2
    25   12   14 1
    26   14   15 1
    27   14   19 1
    28   14   16 1
    29   16   17 1
    30   16   52 1
    31   16   53 1
    32   17   18 1
    33   17   25 am
    34   18   19 1
    35   18   54 1
    36   18   55 1
    37   19   24 1
    38   19   20 1
    39   20   21 1
    40   20   56 1
    41   20   57 1
    42   21   22 1
    43   21   58 1
    44   21   59 1
    45   22   23 1
    46   22   60 1
    47   22   72 1
    48   23   24 1
    49   23   61 1
    50   23   62 1
    51   24   63 1
    52   24   64 1
    53   25   26 2
    54   25   27 1
    55   27   32 ar
    56   27   28 ar
    57   28   29 ar
    58   28   65 1
    59   29   30 ar
    60   29   66 1
    61   30   31 ar
    62   30   67 1
    63   31   39 1
    64   31   32 ar
    65   32   33 1
    66   33   38 ar
    67   33   34 ar
    68   34   35 ar
    69   34   68 1
    70   35   36 ar
    71   35   69 1
    72   36   37 ar
    73   36   70 1
    74   37   38 ar
    75   37   71 1
    76   38   39 1
    77   39   40 2
@<TRIPOS>MOLECULE
ZINC00914460
   57    60     0     0     0
SMALL
USER_CHARGES
N-cyclopentyl-N-[(6,8-dimethyl-2-oxo-1H-quinolin-3-yl)methyl]-4-nitro-benzenesulfonamide
@<TRIPOS>ATOM
      1 C1          6.9347    3.5719    0.7789 C.3       1 <0>        -0.1140
      2 C2          5.9503    2.5295    0.3149 C.ar      1 <0>        -0.1117
      3 C3          6.4097    1.3835   -0.3200 C.ar      1 <0>        -0.0632
      4 C4          5.5275    0.4172   -0.7525 C.ar      1 <0>        -0.1261
      5 C5          4.1617    0.5904   -0.5526 C.ar      1 <0>         0.1861
      6 C6          3.6997    1.7536    0.0914 C.ar      1 <0>        -0.1276
      7 C7          4.6137    2.7208    0.5224 C.ar      1 <0>        -0.0599
      8 C8          2.2606    1.9263    0.2980 C.2       1 <0>        -0.0014
      9 C9          1.4221    0.9551   -0.1406 C.2       1 <0>        -0.1968
     10 C10         1.9373   -0.1952   -0.7756 C.2       1 <0>         0.5253
     11 O1          1.1663   -1.0585   -1.1578 O.2       1 <0>        -0.4967
     12 N1          3.2568   -0.3602   -0.9745 N.am      1 <0>        -0.6348
     13 H1          3.5865   -1.1843   -1.4351 H         1 <0>         0.4207
     14 C11        -0.0648    1.1017    0.0562 C.3       1 <0>         0.1776
     15 N2         -0.7050    1.3621   -1.2355 N.pl3     1 <0>        -0.9794
     16 C12        -0.5328    2.6615   -1.8898 C.3       1 <0>         0.1430
     17 C13         0.9442    2.8610   -2.2881 C.3       1 <0>        -0.1564
     18 C14         1.2048    4.3672   -2.0385 C.3       1 <0>        -0.1214
     19 C15         0.3970    4.6444   -0.7463 C.3       1 <0>        -0.1232
     20 C16        -0.8807    3.7954   -0.9095 C.3       1 <0>        -0.1391
     21 S1         -1.6234    0.1875   -1.9561 S.o2      1 <0>         2.6750
     22 O2         -1.6314    0.4749   -3.3477 O.2       1 <0>        -0.9450
     23 O3         -1.1720   -1.0561   -1.4376 O.2       1 <0>        -0.8988
     24 C17        -3.2782    0.3988   -1.3888 C.ar      1 <0>        -0.6417
     25 C18        -3.7081   -0.2586   -0.2513 C.ar      1 <0>        -0.0183
     26 C19        -5.0052   -0.0897    0.1960 C.ar      1 <0>        -0.0747
     27 C20        -5.8747    0.7301   -0.4988 C.ar      1 <0>         0.0053
     28 C21        -5.4462    1.3834   -1.6392 C.ar      1 <0>        -0.0750
     29 C22        -4.1481    1.2176   -2.0843 C.ar      1 <0>        -0.0200
     30 N3         -7.2646    0.9081   -0.0219 N.pl3     1 <0>         0.0177
     31 O4         -8.0308    1.6301   -0.6343 O.2       1 <0>        -0.1445
     32 O5         -7.6421    0.3324    0.9829 O.3       1 <0>        -0.1442
     33 C23         6.0402   -0.8218   -1.4402 C.3       1 <0>        -0.1173
     34 H2          7.2454    3.3495    1.7997 H         1 <0>         0.0716
     35 H3          7.8063    3.5654    0.1243 H         1 <0>         0.0678
     36 H4          6.4646    4.5549    0.7482 H         1 <0>         0.0680
     37 H5          7.4697    1.2477   -0.4763 H         1 <0>         0.1318
     38 H6          4.2643    3.6148    1.0174 H         1 <0>         0.1340
     39 H7          1.8753    2.8080    0.7886 H         1 <0>         0.1463
     40 H8         -0.2615    1.9330    0.7333 H         1 <0>         0.0942
     41 H9         -0.4672    0.1828    0.4825 H         1 <0>         0.1057
     42 H10        -1.1697    2.7223   -2.7722 H         1 <0>         0.1012
     43 H11         1.5943    2.2521   -1.6598 H         1 <0>         0.0914
     44 H12         1.0918    2.6175   -3.3402 H         1 <0>         0.0693
     45 H13         0.8269    4.9671   -2.8664 H         1 <0>         0.0697
     46 H14         2.2666    4.5541   -1.8778 H         1 <0>         0.0692
     47 H15         0.1453    5.7024   -0.6733 H         1 <0>         0.0696
     48 H16         0.9588    4.3235    0.1310 H         1 <0>         0.0649
     49 H17        -1.6859    4.4070   -1.3166 H         1 <0>         0.0743
     50 H18        -1.1777    3.3789    0.0530 H         1 <0>         0.0762
     51 H19        -3.0298   -0.9017    0.2896 H         1 <0>         0.1652
     52 H20        -5.3400   -0.6004    1.0868 H         1 <0>         0.1649
     53 H21        -6.1257    2.0237   -2.1822 H         1 <0>         0.1645
     54 H22        -3.8133    1.7281   -2.9753 H         1 <0>         0.1625
     55 H23         6.2374   -1.5945   -0.6972 H         1 <0>         0.0766
     56 H24         5.2925   -1.1804   -2.1477 H         1 <0>         0.0633
     57 H25         6.9615   -0.5867   -1.9732 H         1 <0>         0.0781
@<TRIPOS>BOND
     1    1    2 1
     2    1   34 1
     3    1   35 1
     4    1   36 1
     5    2    7 ar
     6    2    3 ar
     7    3    4 ar
     8    3   37 1
     9    4    5 ar
    10    4   33 1
    11    5   12 1
    12    5    6 ar
    13    6    7 ar
    14    6    8 1
    15    7   38 1
    16    8    9 2
    17    8   39 1
    18    9   10 1
    19    9   14 1
    20   10   11 2
    21   10   12 am
    22   12   13 1
    23   14   15 1
    24   14   40 1
    25   14   41 1
    26   15   16 1
    27   15   21 1
    28   16   20 1
    29   16   17 1
    30   16   42 1
    31   17   18 1
    32   17   43 1
    33   17   44 1
    34   18   19 1
    35   18   45 1
    36   18   46 1
    37   19   20 1
    38   19   47 1
    39   19   48 1
    40   20   49 1
    41   20   50 1
    42   21   22 2
    43   21   23 2
    44   21   24 1
    45   24   29 ar
    46   24   25 ar
    47   25   26 ar
    48   25   51 1
    49   26   27 ar
    50   26   52 1
    51   27   28 ar
    52   27   30 1
    53   28   29 ar
    54   28   53 1
    55   29   54 1
    56   30   31 2
    57   30   32 1
    58   33   55 1
    59   33   56 1
    60   33   57 1
@<TRIPOS>MOLECULE
ZINC12804977
   60    63     0     0     0
SMALL
USER_CHARGES
(3-cyano-1-cyclopentyl-4,5-dimethyl-pyrrol-2-yl)carbamoylmethyl 3-(2,5-dioxabicyclo[4.4.0]deca-7,9,11-trien-8-yl)prop-2-enoate
@<TRIPOS>ATOM
      1 C1        -13.9119    3.3423   -1.0226 C.3       1 <0>        -0.0835
      2 C2        -13.3753    2.0122   -0.5598 C.2       1 <0>        -0.1063
      3 C3        -14.0652    1.0414    0.0608 C.2       1 <0>         0.0287
      4 N1        -13.2313   -0.0143    0.3159 N.pl3     1 <0>        -0.4390
      5 C4        -11.9784    0.2610   -0.1300 C.2       1 <0>         0.3129
      6 C5        -11.9970    1.5266   -0.6994 C.2       1 <0>        -0.1125
      7 C6        -10.8960    2.2179   -1.2998 C.1       1 <0>         0.2974
      8 N2        -10.0226    2.7664   -1.7761 N.1       1 <0>        -0.4320
      9 N3        -10.8768   -0.5767   -0.0381 N.am      1 <0>        -0.6508
     10 C7         -9.6385   -0.0534    0.0588 C.2       1 <0>         0.5110
     11 O1         -9.4940    1.1453    0.1736 O.2       1 <0>        -0.4638
     12 C8         -8.4335   -0.9578    0.0243 C.3       1 <0>         0.0570
     13 O2         -7.2437   -0.1663    0.0256 O.3       1 <0>        -0.3236
     14 C9         -6.0680   -0.8277   -0.0034 C.2       1 <0>         0.5094
     15 O3         -6.0547   -2.0438   -0.0290 O.2       1 <0>        -0.5134
     16 C10        -4.8481   -0.1053   -0.0040 C.2       1 <0>        -0.2139
     17 C11        -3.6709   -0.7675   -0.0330 C.2       1 <0>         0.0259
     18 C12        -2.4064   -0.0186   -0.0336 C.ar      1 <0>        -0.0887
     19 C13        -2.4186    1.3808   -0.0036 C.ar      1 <0>        -0.0836
     20 C14        -1.2319    2.0784   -0.0089 C.ar      1 <0>        -0.1174
     21 C15        -0.0188    1.3993   -0.0362 C.ar      1 <0>         0.0733
     22 C16         0.0014    0.0066   -0.0638 C.ar      1 <0>         0.0442
     23 C17        -1.1856   -0.7018   -0.0636 C.ar      1 <0>        -0.0791
     24 O4          1.1812   -0.6723   -0.0903 O.3       1 <0>        -0.3054
     25 C18         2.3439    0.0733   -0.4673 C.3       1 <0>         0.0197
     26 C19         2.3339    1.4000    0.3041 C.3       1 <0>         0.0187
     27 O5          1.1402    2.1107   -0.0411 O.3       1 <0>        -0.3032
     28 C20       -13.6317   -1.2588    0.9769 C.3       1 <0>         0.1206
     29 C21       -12.6848   -1.5586    2.1573 C.3       1 <0>        -0.1449
     30 C22       -12.5258   -3.0999    2.1337 C.3       1 <0>        -0.1248
     31 C23       -12.4835   -3.4167    0.6181 C.3       1 <0>        -0.1293
     32 C24       -13.5042   -2.4398   -0.0012 C.3       1 <0>        -0.1449
     33 C25       -15.5287    1.1018    0.4151 C.3       1 <0>        -0.0844
     34 H1        -14.2793    3.2501   -2.0447 H         1 <0>         0.0695
     35 H2        -14.7279    3.6520   -0.3697 H         1 <0>         0.0692
     36 H3        -13.1165    4.0868   -0.9882 H         1 <0>         0.0649
     37 H4        -10.9975   -1.5391   -0.0435 H         1 <0>         0.4121
     38 H5         -8.4629   -1.5681   -0.8783 H         1 <0>         0.1047
     39 H6         -8.4401   -1.6053    0.9011 H         1 <0>         0.1064
     40 H7         -4.8599    0.9744    0.0188 H         1 <0>         0.1456
     41 H8         -3.6591   -1.8472   -0.0557 H         1 <0>         0.1429
     42 H9         -3.3582    1.9127    0.0204 H         1 <0>         0.1428
     43 H10        -1.2430    3.1581    0.0149 H         1 <0>         0.1424
     44 H11        -1.1708   -1.7814   -0.0869 H         1 <0>         0.1433
     45 H12         3.2410   -0.4920   -0.2149 H         1 <0>         0.1259
     46 H13         2.3228    0.2702   -1.5391 H         1 <0>         0.0803
     47 H14         2.3469    1.2021    1.3759 H         1 <0>         0.0813
     48 H15         3.2068    1.9919    0.0285 H         1 <0>         0.1262
     49 H16       -14.6587   -1.1783    1.3332 H         1 <0>         0.1146
     50 H17       -11.7206   -1.0734    2.0056 H         1 <0>         0.0784
     51 H18       -13.1322   -1.2348    3.0970 H         1 <0>         0.0831
     52 H19       -13.3813   -3.5831    2.6056 H         1 <0>         0.0788
     53 H20       -11.5961   -3.3999    2.6171 H         1 <0>         0.0775
     54 H21       -12.7838   -4.4486    0.4356 H         1 <0>         0.0824
     55 H22       -11.4869   -3.2319    0.2174 H         1 <0>         0.0616
     56 H23       -14.4692   -2.9330   -0.1189 H         1 <0>         0.0878
     57 H24       -13.1452   -2.0868   -0.9680 H         1 <0>         0.0771
     58 H25       -16.1190    0.7034   -0.4101 H         1 <0>         0.0754
     59 H26       -15.7103    0.5086    1.3113 H         1 <0>         0.0651
     60 H27       -15.8153    2.1370    0.6003 H         1 <0>         0.0864
@<TRIPOS>BOND
     1    1    2 1
     2    1   34 1
     3    1   35 1
     4    1   36 1
     5    2    6 1
     6    2    3 2
     7    3    4 1
     8    3   33 1
     9    4    5 1
    10    4   28 1
    11    5    6 2
    12    5    9 1
    13    6    7 1
    14    7    8 3
    15    9   10 am
    16    9   37 1
    17   10   11 2
    18   10   12 1
    19   12   13 1
    20   12   38 1
    21   12   39 1
    22   13   14 1
    23   14   15 2
    24   14   16 1
    25   16   17 2
    26   16   40 1
    27   17   18 1
    28   17   41 1
    29   18   23 ar
    30   18   19 ar
    31   19   20 ar
    32   19   42 1
    33   20   21 ar
    34   20   43 1
    35   21   27 1
    36   21   22 ar
    37   22   23 ar
    38   22   24 1
    39   23   44 1
    40   24   25 1
    41   25   26 1
    42   25   45 1
    43   25   46 1
    44   26   27 1
    45   26   47 1
    46   26   48 1
    47   28   32 1
    48   28   29 1
    49   28   49 1
    50   29   30 1
    51   29   50 1
    52   29   51 1
    53   30   31 1
    54   30   52 1
    55   30   53 1
    56   31   32 1
    57   31   54 1
    58   31   55 1
    59   32   56 1
    60   32   57 1
    61   33   58 1
    62   33   59 1
    63   33   60 1
@<TRIPOS>MOLECULE
ZINC19355321
   63    67     0     0     0
SMALL
USER_CHARGES
(2R)-N-(2,3-dihydro-1,4-benzodioxin-6-yl)-2-[[5-(1-piperidyl)-4-(p-tolyl)-1,2,4-triazol-3-yl]sulfanyl]propanamide
@<TRIPOS>ATOM
      1 C1          3.3816  -10.5011   -2.7831 C.3       1 <0>        -0.1219
      2 C2          4.2785   -9.4084   -2.2609 C.ar      1 <0>        -0.0663
      3 C3          4.3773   -8.2109   -2.9451 C.ar      1 <0>        -0.1063
      4 C4          5.1986   -7.2076   -2.4689 C.ar      1 <0>        -0.0949
      5 C5          5.9252   -7.4024   -1.3023 C.ar      1 <0>         0.1035
      6 C6          5.8280   -8.6076   -0.6204 C.ar      1 <0>        -0.0822
      7 C7          5.0014   -9.6055   -1.0988 C.ar      1 <0>        -0.1084
      8 N1          6.7604   -6.3856   -0.8166 N.pl3     1 <0>        -0.4247
      9 C8          8.1243   -6.4413   -0.7201 C.2       1 <0>         0.4088
     10 N2          8.5412   -5.3057   -0.2169 N.2       1 <0>        -0.3242
     11 N3          7.4220   -4.4949    0.0122 N.2       1 <0>        -0.3109
     12 C9          6.3553   -5.1607   -0.3583 C.2       1 <0>         0.1992
     13 S1          4.6926   -4.5838   -0.2741 S.3       1 <0>         0.1058
     14 C10         4.8416   -2.9155    0.4223 C.3       1 <0>        -0.1160
     15 H1          5.4890   -2.1802   -0.0779 H         1 <0>         0.1260
     16 C11         5.3787   -3.0058    1.8521 C.3       1 <0>        -0.1503
     17 C12         3.4878   -2.2537    0.4351 C.2       1 <0>         0.5352
     18 O1          2.4819   -2.9309    0.4615 O.2       1 <0>        -0.5034
     19 N4          3.3947   -0.9092    0.4173 N.am      1 <0>        -0.6745
     20 C13         2.1420   -0.2922    0.5309 C.ar      1 <0>         0.1517
     21 C14         2.0186    0.9078    1.2183 C.ar      1 <0>        -0.1359
     22 C15         0.7837    1.5162    1.3310 C.ar      1 <0>        -0.0942
     23 C16        -0.3363    0.9312    0.7587 C.ar      1 <0>         0.0371
     24 C17        -0.2155   -0.2689    0.0680 C.ar      1 <0>         0.0703
     25 C18         1.0240   -0.8799   -0.0438 C.ar      1 <0>        -0.1171
     26 O2         -1.3016   -0.8537   -0.5075 O.3       1 <0>        -0.3044
     27 C19        -2.5861   -0.4087   -0.0584 C.3       1 <0>         0.0169
     28 C20        -2.5762    1.1253   -0.0175 C.3       1 <0>         0.0187
     29 O3         -1.5470    1.5418    0.8873 O.3       1 <0>        -0.3059
     30 N5          8.9255   -7.5153   -1.0863 N.pl3     1 <0>        -0.4638
     31 C21         9.5220   -8.1533    0.0942 C.3       1 <0>         0.0643
     32 C22        10.2769   -9.4143   -0.3326 C.3       1 <0>        -0.1162
     33 C23        11.3685   -9.0344   -1.3369 C.3       1 <0>        -0.1250
     34 C24        10.7262   -8.3285   -2.5343 C.3       1 <0>        -0.1163
     35 C25         9.9582   -7.0991   -2.0437 C.3       1 <0>         0.0666
     36 H2          2.8931  -10.1633   -3.7090 H         1 <0>         0.0695
     37 H3          2.6157  -10.7381   -2.0299 H         1 <0>         0.0753
     38 H4          3.9813  -11.3994   -2.9915 H         1 <0>         0.0748
     39 H5          3.8115   -8.0598   -3.8526 H         1 <0>         0.1340
     40 H6          5.2757   -6.2726   -3.0039 H         1 <0>         0.1287
     41 H7          6.3953   -8.7635    0.2853 H         1 <0>         0.1250
     42 H8          4.9226  -10.5420   -0.5667 H         1 <0>         0.1331
     43 H9          5.4691   -1.9941    2.2744 H         1 <0>         0.0751
     44 H10         6.3669   -3.4888    1.8427 H         1 <0>         0.0895
     45 H11         4.6862   -3.5994    2.4671 H         1 <0>         0.0729
     46 H12         4.3023   -0.2964    0.3136 H         1 <0>         0.4407
     47 H13         2.8888    1.3660    1.6648 H         1 <0>         0.1376
     48 H14         0.6899    2.4496    1.8663 H         1 <0>         0.1406
     49 H15         1.1195   -1.8134   -0.5784 H         1 <0>         0.1509
     50 H16        -3.3608   -0.7629   -0.7544 H         1 <0>         0.1251
     51 H17        -2.7834   -0.8119    0.9458 H         1 <0>         0.0795
     52 H18        -2.3753    1.5177   -1.0253 H         1 <0>         0.0795
     53 H19        -3.5546    1.4892    0.3293 H         1 <0>         0.1252
     54 H20        10.2209   -7.4533    0.5754 H         1 <0>         0.0549
     55 H21         8.7276   -8.4250    0.8049 H         1 <0>         0.0753
     56 H22        10.7356   -9.8835    0.5503 H         1 <0>         0.0765
     57 H23         9.5755  -10.1208   -0.8005 H         1 <0>         0.0749
     58 H24        12.0916   -8.3601   -0.8548 H         1 <0>         0.0642
     59 H25        11.8856   -9.9435   -1.6777 H         1 <0>         0.0706
     60 H26        11.5104   -8.0158   -3.2395 H         1 <0>         0.0767
     61 H27        10.0336   -9.0185   -3.0385 H         1 <0>         0.0743
     62 H28         9.4835   -6.5980   -2.9002 H         1 <0>         0.0772
     63 H29        10.6550   -6.4041   -1.5524 H         1 <0>         0.0569
@<TRIPOS>BOND
     1    1    2 1
     2    1   36 1
     3    1   37 1
     4    1   38 1
     5    2    7 ar
     6    2    3 ar
     7    3    4 ar
     8    3   39 1
     9    4    5 ar
    10    4   40 1
    11    5    6 ar
    12    5    8 1
    13    6    7 ar
    14    6   41 1
    15    7   42 1
    16    8   12 1
    17    8    9 1
    18    9   10 2
    19    9   30 1
    20   10   11 1
    21   11   12 2
    22   12   13 1
    23   13   14 1
    24   14   15 1
    25   14   16 1
    26   14   17 1
    27   16   43 1
    28   16   44 1
    29   16   45 1
    30   17   18 2
    31   17   19 am
    32   19   20 1
    33   19   46 1
    34   20   25 ar
    35   20   21 ar
    36   21   22 ar
    37   21   47 1
    38   22   23 ar
    39   22   48 1
    40   23   29 1
    41   23   24 ar
    42   24   25 ar
    43   24   26 1
    44   25   49 1
    45   26   27 1
    46   27   28 1
    47   27   50 1
    48   27   51 1
    49   28   29 1
    50   28   52 1
    51   28   53 1
    52   30   35 1
    53   30   31 1
    54   31   32 1
    55   31   54 1
    56   31   55 1
    57   32   33 1
    58   32   56 1
    59   32   57 1
    60   33   34 1
    61   33   58 1
    62   33   59 1
    63   34   35 1
    64   34   60 1
    65   34   61 1
    66   35   62 1
    67   35   63 1
@<TRIPOS>MOLECULE
ZINC25184962
   46    48     0     0     0
SMALL
USER_CHARGES
N-(2-bromo-4-nitro-phenyl)-2-(3-isopropyl-4-oxo-quinazolin-2-yl)sulfanyl-acetamide
@<TRIPOS>ATOM
      1 C1          0.6659   -4.7647   -1.2328 C.3       1 <0>        -0.1721
      2 C2         -0.0293   -4.2319    0.0217 C.3       1 <0>         0.1245
      3 C3          0.6715   -4.7820    1.2656 C.3       1 <0>        -0.1718
      4 N1          0.0356   -2.7684    0.0317 N.am      1 <0>        -0.5260
      5 C4          1.2390   -2.1490    0.0332 C.2       1 <0>         0.5559
      6 O1          2.2767   -2.7853    0.0269 O.2       1 <0>        -0.4976
      7 C5          1.2457   -0.6799    0.0434 C.ar      1 <0>        -0.2017
      8 C6          2.4326    0.0514    0.0462 C.ar      1 <0>        -0.0379
      9 C7          2.3820    1.4180    0.0562 C.ar      1 <0>        -0.1391
     10 C8          1.1626    2.0831    0.0636 C.ar      1 <0>        -0.0690
     11 C9         -0.0157    1.3913    0.0610 C.ar      1 <0>        -0.1138
     12 C10         0.0028   -0.0067    0.0508 C.ar      1 <0>         0.1670
     13 N2         -1.1359   -0.7284    0.0484 N.2       1 <0>        -0.5352
     14 C11        -1.1187   -2.0385    0.0389 C.2       1 <0>         0.3562
     15 S1         -2.6564   -2.8987    0.0358 S.3       1 <0>         0.0830
     16 C12        -3.8009   -1.4965    0.0476 C.3       1 <0>        -0.1574
     17 C13        -5.2193   -2.0058    0.0468 C.2       1 <0>         0.5417
     18 O2         -5.4351   -3.1993    0.0389 O.2       1 <0>        -0.4966
     19 N3         -6.2480   -1.1350    0.0547 N.am      1 <0>        -0.6795
     20 C14        -7.5630   -1.6045   -0.0410 C.ar      1 <0>         0.2354
     21 C15        -7.9154   -2.8119    0.5475 C.ar      1 <0>        -0.1191
     22 C16        -9.2138   -3.2726    0.4513 C.ar      1 <0>        -0.0168
     23 C17       -10.1633   -2.5328   -0.2298 C.ar      1 <0>        -0.0578
     24 C18        -9.8164   -1.3302   -0.8171 C.ar      1 <0>        -0.0037
     25 C19        -8.5200   -0.8609   -0.7201 C.ar      1 <0>        -0.1310
     26 Br1        -8.0479    0.7878   -1.5168 Br        1 <0>        -0.0043
     27 N4        -11.5541   -3.0295   -0.3299 N.pl3     1 <0>         0.0294
     28 O3        -11.8613   -4.0886    0.1873 O.2       1 <0>        -0.1509
     29 O4        -12.3914   -2.3791   -0.9295 O.3       1 <0>        -0.1540
     30 H1          0.1621   -4.3692   -2.1271 H         1 <0>         0.0615
     31 H2          0.6172   -5.8636   -1.2403 H         1 <0>         0.0824
     32 H3          1.7182   -4.4443   -1.2329 H         1 <0>         0.0849
     33 H4         -1.0938   -4.5092    0.0221 H         1 <0>         0.1009
     34 H5          0.1717   -4.3990    2.1675 H         1 <0>         0.0615
     35 H6          1.7238   -4.4616    1.2654 H         1 <0>         0.0849
     36 H7          0.6228   -5.8809    1.2581 H         1 <0>         0.0824
     37 H8          3.3851   -0.4577    0.0409 H         1 <0>         0.1381
     38 H9          3.3003    1.9864    0.0581 H         1 <0>         0.1340
     39 H10         1.1455    3.1629    0.0711 H         1 <0>         0.1348
     40 H11        -0.9564    1.9217    0.0623 H         1 <0>         0.1383
     41 H12        -3.6293   -0.8907    0.9496 H         1 <0>         0.1408
     42 H13        -3.6327   -0.8784   -0.8466 H         1 <0>         0.1409
     43 H14        -6.0540   -0.0553    0.1364 H         1 <0>         0.4503
     44 H15        -7.1748   -3.3900    1.0802 H         1 <0>         0.1723
     45 H16        -9.4882   -4.2116    0.9089 H         1 <0>         0.1661
     46 H17       -10.5601   -0.7549   -1.3483 H         1 <0>         0.1681
@<TRIPOS>BOND
     1    1    2 1
     2    1   30 1
     3    1   31 1
     4    1   32 1
     5    2    3 1
     6    2    4 1
     7    2   33 1
     8    3   34 1
     9    3   35 1
    10    3   36 1
    11    4   14 1
    12    4    5 am
    13    5    6 2
    14    5    7 1
    15    7   12 ar
    16    7    8 ar
    17    8    9 ar
    18    8   37 1
    19    9   10 ar
    20    9   38 1
    21   10   11 ar
    22   10   39 1
    23   11   12 ar
    24   11   40 1
    25   12   13 1
    26   13   14 2
    27   14   15 1
    28   15   16 1
    29   16   17 1
    30   16   41 1
    31   16   42 1
    32   17   18 2
    33   17   19 am
    34   19   20 1
    35   19   43 1
    36   20   25 ar
    37   20   21 ar
    38   21   22 ar
    39   21   44 1
    40   22   23 ar
    41   22   45 1
    42   23   24 ar
    43   23   27 1
    44   24   25 ar
    45   24   46 1
    46   25   26 1
    47   27   28 2
    48   27   29 1
@<TRIPOS>MOLECULE
ZINC44837016
   46    49     0     0     0
SMALL
USER_CHARGES

@<TRIPOS>ATOM
      1 C1          0.1533    1.3716    0.6372 C.ar      1 <0>        -0.0921
      2 C2          1.1730    2.0863    0.0354 C.ar      1 <0>        -0.1221
      3 C3          2.2141    1.4216   -0.5857 C.ar      1 <0>        -0.0880
      4 C4          2.2387    0.0397   -0.6069 C.ar      1 <0>        -0.0673
      5 C5          1.2156   -0.6807   -0.0026 C.ar      1 <0>         0.1569
      6 C6          0.1719   -0.0093    0.6201 C.ar      1 <0>        -0.1194
      7 N1          1.2367   -2.0802   -0.0224 N.am      1 <0>        -0.6618
      8 C7          0.0859   -2.7732    0.0871 C.2       1 <0>         0.5013
      9 O1         -0.9758   -2.1870    0.1018 O.2       1 <0>        -0.4987
     10 C8          0.1184   -4.2762    0.1912 C.3       1 <0>         0.0785
     11 N2         -1.2501   -4.7879    0.2994 N.am      1 <0>        -0.5278
     12 C9         -1.8204   -4.9357    1.5209 C.2       1 <0>         0.4308
     13 N3         -3.0309   -5.3839    1.6859 N.2       1 <0>        -0.5195
     14 C10        -3.8037   -5.7336    0.6476 C.2       1 <0>         0.3057
     15 C11        -3.3032   -5.6167   -0.6552 C.2       1 <0>        -0.1453
     16 C12        -1.9403   -5.1053   -0.8202 C.2       1 <0>         0.5927
     17 O2         -1.4450   -4.9739   -1.9256 O.2       1 <0>        -0.4818
     18 N4         -4.2562   -6.0240   -1.5053 N.2       1 <0>        -0.1591
     19 N5         -5.3052   -6.3841   -0.8506 N.2       1 <0>        -0.0293
     20 N6         -5.0706   -6.2193    0.5229 N.pl3     1 <0>        -0.3493
     21 C13        -6.0061   -6.5124    1.6115 C.3       1 <0>         0.1703
     22 C14        -6.8285   -5.2857    1.9111 C.ar      1 <0>        -0.1286
     23 C15        -6.3843   -4.3664    2.8434 C.ar      1 <0>        -0.0577
     24 C16        -7.1385   -3.2413    3.1182 C.ar      1 <0>        -0.1216
     25 C17        -8.3370   -3.0349    2.4605 C.ar      1 <0>        -0.0564
     26 C18        -8.7807   -3.9534    1.5280 C.ar      1 <0>        -0.1854
     27 C19        -8.0241   -5.0767    1.2499 C.ar      1 <0>        -0.0391
     28 C20       -10.0873   -3.7287    0.8115 C.3       1 <0>         0.5087
     29 F1        -10.6629   -2.5333    1.2554 F         1 <0>        -0.1757
     30 F2         -9.8564   -3.6517   -0.5662 F         1 <0>        -0.1734
     31 F3        -10.9554   -4.7923    1.0801 F         1 <0>        -0.1743
     32 Cl1         3.5455   -0.7946   -1.3879 Cl        1 <0>        -0.0621
     33 H1         -0.6563    1.8940    1.1251 H         1 <0>         0.1343
     34 H2          1.1558    3.1660    0.0504 H         1 <0>         0.1354
     35 H3          3.0087    1.9826   -1.0551 H         1 <0>         0.1394
     36 H4         -0.6247   -0.5664    1.0907 H         1 <0>         0.1528
     37 H5          2.0796   -2.5513   -0.1148 H         1 <0>         0.4169
     38 H6          0.5925   -4.6919   -0.6979 H         1 <0>         0.1416
     39 H7          0.6859   -4.5670    1.0752 H         1 <0>         0.1427
     40 H8         -1.2446   -4.6700    2.3951 H         1 <0>         0.2210
     41 H9         -6.6653   -7.3281    1.3143 H         1 <0>         0.1211
     42 H10        -5.4482   -6.8023    2.5019 H         1 <0>         0.1214
     43 H11        -5.4480   -4.5276    3.3571 H         1 <0>         0.1406
     44 H12        -6.7918   -2.5235    3.8469 H         1 <0>         0.1411
     45 H13        -8.9267   -2.1561    2.6758 H         1 <0>         0.1430
     46 H14        -8.3690   -5.7926    0.5185 H         1 <0>         0.1399
@<TRIPOS>BOND
     1    1    6 ar
     2    1    2 ar
     3    1   33 1
     4    2    3 ar
     5    2   34 1
     6    3    4 ar
     7    3   35 1
     8    4    5 ar
     9    4   32 1
    10    5    6 ar
    11    5    7 1
    12    6   36 1
    13    7    8 am
    14    7   37 1
    15    8    9 2
    16    8   10 1
    17   10   11 1
    18   10   38 1
    19   10   39 1
    20   11   16 am
    21   11   12 1
    22   12   13 2
    23   12   40 1
    24   13   14 1
    25   14   20 1
    26   14   15 2
    27   15   16 1
    28   15   18 1
    29   16   17 2
    30   18   19 2
    31   19   20 1
    32   20   21 1
    33   21   22 1
    34   21   41 1
    35   21   42 1
    36   22   27 ar
    37   22   23 ar
    38   23   24 ar
    39   23   43 1
    40   24   25 ar
    41   24   44 1
    42   25   26 ar
    43   25   45 1
    44   26   27 ar
    45   26   28 1
    46   27   46 1
    47   28   29 1
    48   28   30 1
    49   28   31 1
@<TRIPOS>MOLECULE
ZINC01463222
   41    44     0     0     0
SMALL
USER_CHARGES
7-[(3-nitrophenyl)-thiazol-2-ylamino-methyl]quinolin-8-ol
@<TRIPOS>ATOM
      1 C1         -1.0846    1.7190    0.2851 C.ar      1 <0>        -0.1114
      2 C2         -1.1529    3.0983    0.2190 C.ar      1 <0>        -0.0566
      3 C3          0.0060    3.8429    0.1054 C.ar      1 <0>        -0.0909
      4 C4          1.2338    3.2087    0.0634 C.ar      1 <0>        -0.0252
      5 C5          1.3024    1.8301    0.1348 C.ar      1 <0>        -0.0397
      6 C6          0.1431    1.0853    0.2484 C.ar      1 <0>        -0.0471
      7 N1          2.6169    1.1511    0.0893 N.pl3     1 <0>         0.0261
      8 O1          2.6773   -0.0638    0.1518 O.2       1 <0>        -0.1556
      9 O2          3.6381    1.8073   -0.0108 O.3       1 <0>        -0.1501
     10 C7         -0.0688    5.3460    0.0270 C.3       1 <0>         0.2533
     11 H1          0.8951    5.7415   -0.2932 H         1 <0>         0.1099
     12 C8         -0.4147    5.9032    1.3838 C.ar      1 <0>        -0.1274
     13 C9         -1.7458    6.1634    1.6991 C.ar      1 <0>        -0.0870
     14 C10        -2.0914    6.6665    2.9163 C.ar      1 <0>        -0.0985
     15 C11        -1.0945    6.9282    3.8705 C.ar      1 <0>        -0.0857
     16 C12        -1.4131    7.4487    5.1391 C.ar      1 <0>        -0.0605
     17 C13        -0.3918    7.6782    6.0163 C.ar      1 <0>        -0.1647
     18 C14         0.9211    7.3982    5.6432 C.ar      1 <0>         0.1311
     19 N2          1.2134    6.9135    4.4609 N.ar      1 <0>        -0.4581
     20 C15         0.2614    6.6659    3.5568 C.ar      1 <0>         0.1033
     21 C16         0.5815    6.1399    2.2875 C.ar      1 <0>         0.1602
     22 O3          1.8739    5.8746    1.9642 O.3       1 <0>        -0.4768
     23 N3         -1.1007    5.7339   -0.9378 N.pl3     1 <0>        -0.6743
     24 C17        -1.0057    6.9452   -1.6048 C.2       1 <0>         0.3495
     25 N4         -1.7731    7.4256   -2.5645 N.2       1 <0>        -0.5780
     26 C18        -1.5400    8.6109   -3.0963 C.2       1 <0>         0.0727
     27 C19        -0.4897    9.3307   -2.6345 C.2       1 <0>        -0.2504
     28 S1          0.1495    8.2232   -1.3865 S.3       1 <0>         0.0250
     29 H2         -1.9904    1.1369    0.3693 H         1 <0>         0.1534
     30 H3         -2.1120    3.5936    0.2515 H         1 <0>         0.1418
     31 H4          2.1393    3.7905   -0.0257 H         1 <0>         0.1598
     32 H5          0.1967    0.0080    0.3039 H         1 <0>         0.1578
     33 H6         -2.5149    5.9638    0.9677 H         1 <0>         0.1310
     34 H7         -3.1280    6.8632    3.1473 H         1 <0>         0.1366
     35 H8         -2.4367    7.6599    5.4113 H         1 <0>         0.1433
     36 H9         -0.6016    8.0771    6.9978 H         1 <0>         0.1423
     37 H10         1.7189    7.5849    6.3468 H         1 <0>         0.1638
     38 H11         2.3381    6.6185    1.5565 H         1 <0>         0.3956
     39 H12        -1.8506    5.1430   -1.1098 H         1 <0>         0.4159
     40 H13        -2.1725    8.9982   -3.8814 H         1 <0>         0.1704
     41 H14        -0.1384   10.3069   -2.9345 H         1 <0>         0.1956
@<TRIPOS>BOND
     1    1    6 ar
     2    1    2 ar
     3    1   29 1
     4    2    3 ar
     5    2   30 1
     6    3    4 ar
     7    3   10 1
     8    4    5 ar
     9    4   31 1
    10    5    6 ar
    11    5    7 1
    12    6   32 1
    13    7    8 2
    14    7    9 1
    15   10   11 1
    16   10   12 1
    17   10   23 1
    18   12   21 ar
    19   12   13 ar
    20   13   14 ar
    21   13   33 1
    22   14   15 ar
    23   14   34 1
    24   15   20 ar
    25   15   16 ar
    26   16   17 ar
    27   16   35 1
    28   17   18 ar
    29   17   36 1
    30   18   19 ar
    31   18   37 1
    32   19   20 ar
    33   20   21 ar
    34   21   22 1
    35   22   38 1
    36   23   24 1
    37   23   39 1
    38   24   28 1
    39   24   25 2
    40   25   26 1
    41   26   27 2
    42   26   40 1
    43   27   28 1
    44   27   41 1
@<TRIPOS>MOLECULE
ZINC06887552
   42    44     0     0     0
SMALL
USER_CHARGES
N-(2-ethyl-6-methyl-phenyl)-5-(6-oxo-1H-pyridazin-3-yl)-furan-2-sulfonamide
@<TRIPOS>ATOM
      1 C1         -8.0945    5.3711   -4.1636 C.3       1 <0>        -0.1505
      2 C2         -8.5149    3.9055   -4.0362 C.3       1 <0>        -0.0862
      3 C3         -7.3238    3.0743   -3.6345 C.ar      1 <0>        -0.0736
      4 C4         -6.5691    2.4360   -4.5994 C.ar      1 <0>        -0.1102
      5 C5         -5.4795    1.6685   -4.2313 C.ar      1 <0>        -0.1087
      6 C6         -5.1382    1.5415   -2.8971 C.ar      1 <0>        -0.1075
      7 C7         -5.8849    2.1816   -1.9278 C.ar      1 <0>        -0.0888
      8 C8         -6.9804    2.9535   -2.2942 C.ar      1 <0>         0.1299
      9 N1         -7.7382    3.6019   -1.3163 N.pl3     1 <0>        -1.0546
     10 S1         -7.0143    4.6766   -0.2852 S.o2      1 <0>         2.7199
     11 O1         -6.7360    3.9653    0.9130 O.2       1 <0>        -0.9310
     12 O2         -7.8075    5.8554   -0.3047 O.2       1 <0>        -0.9317
     13 C9         -5.4571    5.1059   -0.9893 C.2       1 <0>        -0.5638
     14 C10        -5.2561    6.0349   -1.9445 C.2       1 <0>        -0.0674
     15 C11        -3.8727    6.0615   -2.2099 C.2       1 <0>        -0.1740
     16 C12        -3.3005    5.1310   -1.3999 C.2       1 <0>         0.0960
     17 O3         -4.2736    4.5618   -0.6627 O.3       1 <0>        -0.1048
     18 C13        -1.8610    4.8054   -1.3353 C.2       1 <0>         0.1241
     19 C14        -1.4021    3.8083   -0.4397 C.2       1 <0>        -0.0581
     20 C15        -0.0666    3.5391   -0.4040 C.2       1 <0>        -0.1721
     21 C16         0.7785    4.2652   -1.2729 C.2       1 <0>         0.4793
     22 O4          1.9807    4.0544   -1.2787 O.2       1 <0>        -0.5172
     23 N2          0.2491    5.1913   -2.0939 N.am      1 <0>        -0.4366
     24 H1          0.8536    5.7011   -2.7060 H         1 <0>         0.4544
     25 N3         -1.0107    5.4380   -2.1126 N.2       1 <0>        -0.1830
     26 C17        -5.5117    2.0434   -0.4743 C.3       1 <0>        -0.1431
     27 H2         -7.7116    5.7238   -3.2059 H         1 <0>         0.0503
     28 H3         -7.3163    5.4612   -4.9215 H         1 <0>         0.0595
     29 H4         -8.9561    5.9723   -4.4540 H         1 <0>         0.0650
     30 H5         -8.8978    3.5528   -4.9938 H         1 <0>         0.0775
     31 H6         -9.2931    3.8153   -3.2783 H         1 <0>         0.0739
     32 H7         -6.8329    2.5331   -5.6422 H         1 <0>         0.1280
     33 H8         -4.8933    1.1674   -4.9875 H         1 <0>         0.1263
     34 H9         -4.2865    0.9413   -2.6129 H         1 <0>         0.1276
     35 H10        -8.6886    3.4227   -1.2412 H         1 <0>         0.4290
     36 H11        -6.0120    6.6469   -2.4142 H         1 <0>         0.1721
     37 H12        -3.3650    6.6964   -2.9211 H         1 <0>         0.1711
     38 H13        -2.0917    3.2785    0.2008 H         1 <0>         0.1620
     39 H14         0.3328    2.7908    0.2645 H         1 <0>         0.1734
     40 H15        -6.3683    1.6699    0.0868 H         1 <0>         0.0860
     41 H16        -4.6811    1.3442   -0.3774 H         1 <0>         0.0758
     42 H17        -5.2158    3.0160   -0.0811 H         1 <0>         0.0817
@<TRIPOS>BOND
     1    1    2 1
     2    1   27 1
     3    1   28 1
     4    1   29 1
     5    2    3 1
     6    2   30 1
     7    2   31 1
     8    3    8 ar
     9    3    4 ar
    10    4    5 ar
    11    4   32 1
    12    5    6 ar
    13    5   33 1
    14    6    7 ar
    15    6   34 1
    16    7    8 ar
    17    7   26 1
    18    8    9 1
    19    9   10 1
    20    9   35 1
    21   10   11 2
    22   10   12 2
    23   10   13 1
    24   13   17 1
    25   13   14 2
    26   14   15 1
    27   14   36 1
    28   15   16 2
    29   15   37 1
    30   16   17 1
    31   16   18 1
    32   18   25 2
    33   18   19 1
    34   19   20 2
    35   19   38 1
    36   20   21 1
    37   20   39 1
    38   21   22 2
    39   21   23 am
    40   23   24 1
    41   23   25 1
    42   26   40 1
    43   26   41 1
    44   26   42 1
@<TRIPOS>MOLECULE
ZINC19791502
   49    53     0     0     0
SMALL
USER_CHARGES
1-[(1R)-1-cyclopropylethyl]-5-[3-(4-methoxyphenyl)-1H-pyrazol-4-yl]-3-methyl-4H-pyrazolo[5,4-d]imidazole
@<TRIPOS>ATOM
      1 C1          5.6102   -2.0213   -0.0620 C.3       1 <0>        -0.0757
      2 C2          5.5125   -0.5175   -0.0530 C.2       1 <0>         0.1335
      3 C3          4.3240    0.2230   -0.0378 C.2       1 <0>        -0.0687
      4 C4          4.6702    1.5699   -0.0330 C.2       1 <0>         0.1651
      5 N1          3.5324    2.2825   -0.0185 N.pl3     1 <0>        -0.5495
      6 C5          2.4982    1.4724   -0.0139 C.2       1 <0>         0.3206
      7 N2          2.9385    0.1779   -0.0201 N.2       1 <0>        -0.4451
      8 C6          1.0827    1.8936    0.0019 C.2       1 <0>        -0.1735
      9 C7         -0.0126    1.0758    0.0080 C.2       1 <0>         0.1134
     10 N3         -1.1120    1.8510    0.0168 N.pl3     1 <0>        -0.4759
     11 H1         -2.1105    1.3894    0.0157 H         1 <0>         0.4802
     12 N4         -0.7339    3.1971    0.0263 N.2       1 <0>        -0.2558
     13 C8          0.5793    3.2686    0.0141 C.2       1 <0>         0.1249
     14 C9          1.3952    4.5066    0.0137 C.ar      1 <0>        -0.0357
     15 C10         2.6083    4.5439    0.6998 C.ar      1 <0>        -0.1237
     16 C11         3.3674    5.6952    0.6931 C.ar      1 <0>        -0.1993
     17 C12         2.9197    6.8197    0.0129 C.ar      1 <0>         0.1406
     18 C13         1.7094    6.7875   -0.6666 C.ar      1 <0>        -0.1327
     19 C14         0.9482    5.6376   -0.6681 C.ar      1 <0>        -0.0474
     20 O1          3.6675    7.9542    0.0125 O.3       1 <0>        -0.3098
     21 C15         4.9019    7.9179    0.7315 C.3       1 <0>         0.0189
     22 N5          6.0386    1.6254   -0.0451 N.pl3     1 <0>        -0.3719
     23 N6          6.5230    0.3113   -0.0573 N.2       1 <0>        -0.2525
     24 C16         6.8519    2.8439   -0.0446 C.3       1 <0>         0.1815
     25 H2          6.1577    3.6971   -0.0328 H         1 <0>         0.0741
     26 C17         7.7235    2.8759   -1.3016 C.3       1 <0>        -0.1614
     27 C18         7.7462    2.8596    1.1967 C.3       1 <0>        -0.2635
     28 C19         7.4437    3.9049    2.2722 C.3       1 <0>        -0.1283
     29 C20         8.6778    4.0592    1.3811 C.3       1 <0>        -0.1170
     30 H3          4.5991   -2.4545   -0.0556 H         1 <0>         0.0833
     31 H4          6.1592   -2.3584    0.8296 H         1 <0>         0.0780
     32 H5          6.1436   -2.3487   -0.9666 H         1 <0>         0.0780
     33 H6          0.0021   -0.0041    0.0020 H         1 <0>         0.1944
     34 H7          2.9549    3.6710    1.2329 H         1 <0>         0.1493
     35 H8          4.3091    5.7235    1.2210 H         1 <0>         0.1380
     36 H9          1.3639    7.6638   -1.1948 H         1 <0>         0.1436
     37 H10         0.0066    5.6133   -1.1965 H         1 <0>         0.1432
     38 H11         5.4027    8.8939    0.6497 H         1 <0>         0.1079
     39 H12         5.5501    7.1365    0.3080 H         1 <0>         0.0581
     40 H13         4.7031    7.6953    1.7902 H         1 <0>         0.0610
     41 H14         8.3341    3.7908   -1.3012 H         1 <0>         0.0757
     42 H15         7.0805    2.8646   -2.1940 H         1 <0>         0.0593
     43 H16         8.3825    1.9952   -1.3133 H         1 <0>         0.0762
     44 H17         7.8761    1.7673    1.1876 H         1 <0>         0.1400
     45 H18         6.4612    4.3591    2.0760 H         1 <0>         0.0927
     46 H19         7.4336    3.4219    3.2604 H         1 <0>         0.1040
     47 H20         9.6879    3.7037    1.6327 H         1 <0>         0.1077
     48 H21         8.7156    4.6409    0.4483 H         1 <0>         0.1031
     49 H22         3.5719    3.3818   -0.0124 H         1 <0>         0.4411
@<TRIPOS>BOND
     1    1    2 1
     2    1   30 1
     3    1   31 1
     4    1   32 1
     5    2   23 2
     6    2    3 1
     7    3    7 1
     8    3    4 2
     9    4    5 1
    10    4   22 1
    11    5    6 1
    12    5   49 1
    13    6    7 2
    14    6    8 1
    15    8   13 1
    16    8    9 2
    17    9   10 1
    18    9   33 1
    19   10   11 1
    20   10   12 1
    21   12   13 2
    22   13   14 1
    23   14   19 ar
    24   14   15 ar
    25   15   16 ar
    26   15   34 1
    27   16   17 ar
    28   16   35 1
    29   17   18 ar
    30   17   20 1
    31   18   19 ar
    32   18   36 1
    33   19   37 1
    34   20   21 1
    35   21   38 1
    36   21   39 1
    37   21   40 1
    38   22   23 1
    39   22   24 1
    40   24   25 1
    41   24   26 1
    42   24   27 1
    43   26   41 1
    44   26   42 1
    45   26   43 1
    46   27   29 1
    47   27   28 1
    48   27   44 1
    49   28   29 1
    50   28   45 1
    51   28   46 1
    52   29   47 1
    53   29   48 1
@<TRIPOS>MOLECULE
ZINC39327573
   49    52     0     0     0
SMALL
USER_CHARGES

@<TRIPOS>ATOM
      1 C1          0.0633    1.2480    0.5131 C.3       1 <0>        -0.0984
      2 C2         -0.0454   -0.2543    0.4660 C.2       1 <0>         0.0012
      3 C3         -1.1579   -0.9192    0.2681 C.2       1 <0>        -0.1645
      4 C4         -2.6037   -0.5152    0.1710 C.3       1 <0>         0.1139
      5 H1         -2.9264   -0.5172   -0.8702 H         1 <0>         0.1111
      6 C5         -3.3719   -1.5592    0.9602 C.2       1 <0>        -0.2857
      7 C6         -2.7770   -2.6789    1.4217 C.2       1 <0>         0.4507
      8 O1         -1.4810   -3.0137    1.2885 O.3       1 <0>        -0.2793
      9 C7         -0.7426   -2.3904    0.2341 C.3       1 <0>         0.1663
     10 H2         -0.9413   -2.8537   -0.7323 H         1 <0>         0.1662
     11 N1          0.6906   -2.3092    0.5340 N.2       1 <0>        -0.1355
     12 N2          0.9957   -1.1127    0.6167 N.2       1 <0>        -0.1123
     13 N3         -3.5760   -3.5671    2.0966 N.pl3     1 <0>        -0.8340
     14 C8         -4.7641   -1.3504    1.2224 C.1       1 <0>         0.2739
     15 N4         -5.8686   -1.1847    1.4303 N.1       1 <0>        -0.4396
     16 C9         -2.8047    0.8507    0.7751 C.ar      1 <0>        -0.0806
     17 C10        -2.4908    1.0703    2.1035 C.ar      1 <0>        -0.0924
     18 C11        -2.6733    2.3215    2.6624 C.ar      1 <0>        -0.1748
     19 C12        -3.1714    3.3590    1.8907 C.ar      1 <0>         0.1124
     20 C13        -3.4869    3.1381    0.5535 C.ar      1 <0>         0.1013
     21 C14        -3.2970    1.8828   -0.0017 C.ar      1 <0>        -0.1589
     22 O2         -3.9760    4.1531   -0.2080 O.3       1 <0>        -0.3039
     23 C15        -4.2777    3.8535   -1.5722 C.3       1 <0>         0.0252
     24 O3         -3.3519    4.5903    2.4390 O.3       1 <0>        -0.2951
     25 C16        -2.8944    4.7768    3.7799 C.3       1 <0>         0.0785
     26 C17        -3.9959    4.3611    4.7768 C.3       1 <0>        -0.1493
     27 C18        -3.8723    5.3882    5.9295 C.3       1 <0>        -0.1239
     28 C19        -3.5463    6.7044    5.1809 C.3       1 <0>        -0.1239
     29 C20        -2.6085    6.2667    4.0369 C.3       1 <0>        -0.1214
     30 H3          1.1014    1.5319    0.6862 H         1 <0>         0.0811
     31 H4         -0.2746    1.6666   -0.4349 H         1 <0>         0.0832
     32 H5         -0.5581    1.6321    1.3220 H         1 <0>         0.0934
     33 H6         -4.5184   -3.3740    2.2210 H         1 <0>         0.4240
     34 H7         -3.1985   -4.3881    2.4492 H         1 <0>         0.4114
     35 H8         -2.1025    0.2625    2.7061 H         1 <0>         0.1231
     36 H9         -2.4280    2.4902    3.7005 H         1 <0>         0.1374
     37 H10        -3.5375    1.7096   -1.0403 H         1 <0>         0.1367
     38 H11        -5.0314    3.0671   -1.6134 H         1 <0>         0.0546
     39 H12        -4.6587    4.7480   -2.0650 H         1 <0>         0.1015
     40 H13        -3.3733    3.5169   -2.0789 H         1 <0>         0.0556
     41 H14        -1.9929    4.1886    3.9517 H         1 <0>         0.0765
     42 H15        -4.9784    4.4283    4.3096 H         1 <0>         0.0802
     43 H16        -3.8158    3.3510    5.1449 H         1 <0>         0.0704
     44 H17        -4.8137    5.4753    6.4719 H         1 <0>         0.0719
     45 H18        -3.0604    5.1161    6.6039 H         1 <0>         0.0702
     46 H19        -4.4561    7.1502    4.7790 H         1 <0>         0.0701
     47 H20        -3.0381    7.4046    5.8440 H         1 <0>         0.0711
     48 H21        -1.5686    6.4015    4.3342 H         1 <0>         0.0778
     49 H22        -2.8188    6.8476    3.1388 H         1 <0>         0.0825
@<TRIPOS>BOND
     1    1    2 1
     2    1   30 1
     3    1   31 1
     4    1   32 1
     5    2   12 1
     6    2    3 2
     7    3    9 1
     8    3    4 1
     9    4    5 1
    10    4    6 1
    11    4   16 1
    12    6    7 2
    13    6   14 1
    14    7    8 1
    15    7   13 1
    16    8    9 1
    17    9   10 1
    18    9   11 1
    19   11   12 2
    20   13   33 1
    21   13   34 1
    22   14   15 3
    23   16   21 ar
    24   16   17 ar
    25   17   18 ar
    26   17   35 1
    27   18   19 ar
    28   18   36 1
    29   19   20 ar
    30   19   24 1
    31   20   21 ar
    32   20   22 1
    33   21   37 1
    34   22   23 1
    35   23   38 1
    36   23   39 1
    37   23   40 1
    38   24   25 1
    39   25   29 1
    40   25   26 1
    41   25   41 1
    42   26   27 1
    43   26   42 1
    44   26   43 1
    45   27   28 1
    46   27   44 1
    47   27   45 1
    48   28   29 1
    49   28   46 1
    50   28   47 1
    51   29   48 1
    52   29   49 1
@<TRIPOS>MOLECULE
ZINC45720314
   50    52     0     0     0
SMALL
USER_CHARGES

@<TRIPOS>ATOM
      1 C1          0.2652    1.1833    0.0191 C.3       1 <0>        -0.1580
      2 C2          0.0945   -0.3338   -0.0817 C.3       1 <0>         0.2031
      3 H1          0.6117   -0.8137    0.7492 H         1 <0>         0.0975
      4 C3         -1.3714   -0.6792   -0.0276 C.ar      1 <0>        -0.0726
      5 C4         -2.1525   -0.5557   -1.1623 C.ar      1 <0>        -0.1299
      6 C5         -3.4977   -0.8719   -1.1169 C.ar      1 <0>        -0.0939
      7 C6         -4.0657   -1.3124    0.0627 C.ar      1 <0>        -0.1195
      8 C7         -3.2843   -1.4374    1.2036 C.ar      1 <0>         0.1502
      9 C8         -1.9321   -1.1240    1.1533 C.ar      1 <0>        -0.1327
     10 N1         -3.8567   -1.8829    2.4001 N.am      1 <0>        -0.6758
     11 C9         -4.8614   -2.7810    2.3732 C.2       1 <0>         0.5106
     12 O1         -5.2052   -3.2749    1.3201 O.2       1 <0>        -0.5245
     13 C10        -5.5575   -3.1714    3.6515 C.3       1 <0>        -0.1708
     14 N2          0.6610   -0.8059   -1.3476 N.am      1 <0>        -0.7395
     15 C11         1.9780   -1.0779   -1.4366 C.2       1 <0>         0.7099
     16 O2          2.6960   -0.9316   -0.4663 O.2       1 <0>        -0.5840
     17 N3          2.4992   -1.5122   -2.6012 N.am      1 <0>        -0.6282
     18 C12         1.6341   -1.6886   -3.7703 C.3       1 <0>         0.0758
     19 C13         3.9308   -1.8079   -2.6980 C.3       1 <0>         0.1777
     20 C14         4.1705   -3.2527   -2.3426 C.ar      1 <0>        -0.1026
     21 C15         4.4155   -3.6085   -1.0293 C.ar      1 <0>        -0.0799
     22 C16         4.6354   -4.9325   -0.6983 C.ar      1 <0>        -0.1033
     23 C17         4.6112   -5.9066   -1.6832 C.ar      1 <0>         0.0360
     24 C18         4.3645   -5.5482   -3.0061 C.ar      1 <0>         0.0259
     25 C19         4.1392   -4.2200   -3.3297 C.ar      1 <0>        -0.0868
     26 O3          4.3926   -6.6751   -3.7759 O.3       1 <0>        -0.3095
     27 C20         5.0617   -7.6693   -2.9778 C.3       1 <0>         0.2132
     28 O4          4.7939   -7.2581   -1.6241 O.3       1 <0>        -0.3093
     29 H2          1.3254    1.4330   -0.0200 H         1 <0>         0.0673
     30 H3         -0.2521    1.6631   -0.8117 H         1 <0>         0.0585
     31 H4         -0.1563    1.5345    0.9610 H         1 <0>         0.0677
     32 H5         -1.7108   -0.2111   -2.0856 H         1 <0>         0.1207
     33 H6         -4.1050   -0.7741   -2.0046 H         1 <0>         0.1286
     34 H7         -5.1166   -1.5589    0.0976 H         1 <0>         0.1348
     35 H8         -1.3207   -1.2241    2.0380 H         1 <0>         0.1288
     36 H9         -3.5305   -1.5455    3.2490 H         1 <0>         0.4128
     37 H10        -5.1149   -2.6286    4.4866 H         1 <0>         0.0794
     38 H11        -6.6167   -2.9247    3.5783 H         1 <0>         0.1007
     39 H12        -5.4444   -4.2433    3.8140 H         1 <0>         0.0999
     40 H13         0.0882   -0.9227   -2.1217 H         1 <0>         0.3961
     41 H14         1.6013   -0.7607   -4.3413 H         1 <0>         0.0603
     42 H15         2.0296   -2.4874   -4.3977 H         1 <0>         0.0761
     43 H16         0.6279   -1.9489   -3.4418 H         1 <0>         0.0659
     44 H17         4.2720   -1.6228   -3.7165 H         1 <0>         0.0900
     45 H18         4.4814   -1.1680   -2.0085 H         1 <0>         0.1004
     46 H19         4.4354   -2.8503   -0.2604 H         1 <0>         0.1459
     47 H20         4.8266   -5.2076    0.3284 H         1 <0>         0.1360
     48 H21         3.9431   -3.9398   -4.3541 H         1 <0>         0.1334
     49 H22         4.6435   -8.6578   -3.1676 H         1 <0>         0.1322
     50 H23         6.1336   -7.6614   -3.1755 H         1 <0>         0.0855
@<TRIPOS>BOND
     1    1    2 1
     2    1   29 1
     3    1   30 1
     4    1   31 1
     5    2    3 1
     6    2    4 1
     7    2   14 1
     8    4    9 ar
     9    4    5 ar
    10    5    6 ar
    11    5   32 1
    12    6    7 ar
    13    6   33 1
    14    7    8 ar
    15    7   34 1
    16    8    9 ar
    17    8   10 1
    18    9   35 1
    19   10   11 am
    20   10   36 1
    21   11   12 2
    22   11   13 1
    23   13   37 1
    24   13   38 1
    25   13   39 1
    26   14   15 am
    27   14   40 1
    28   15   16 2
    29   15   17 am
    30   17   18 1
    31   17   19 1
    32   18   41 1
    33   18   42 1
    34   18   43 1
    35   19   20 1
    36   19   44 1
    37   19   45 1
    38   20   25 ar
    39   20   21 ar
    40   21   22 ar
    41   21   46 1
    42   22   23 ar
    43   22   47 1
    44   23   28 1
    45   23   24 ar
    46   24   25 ar
    47   24   26 1
    48   25   48 1
    49   26   27 1
    50   27   28 1
    51   27   49 1
    52   27   50 1
@<TRIPOS>MOLECULE
ZINC66265694
   39    40     0     0     0
SMALL
USER_CHARGES

@<TRIPOS>ATOM
      1 C1         -0.0184    1.5028    0.0103 C.3       1 <0>        -0.1271
      2 C2          0.0021   -0.0041    0.0020 C.2       1 <0>         0.0268
      3 C3          0.0224   -0.6845    1.1661 C.2       1 <0>        -0.2100
      4 C4          0.0422   -2.1482    1.1581 C.2       1 <0>         0.5480
      5 O1          0.0404   -2.7510    0.1008 O.2       1 <0>        -0.5240
      6 N1          0.0625   -2.8283    2.3215 N.am      1 <0>        -0.5180
      7 N2          0.0815   -4.2291    2.3138 N.am      1 <0>        -0.5132
      8 C5          0.1018   -4.9092    3.4772 C.2       1 <0>         0.5634
      9 O2          0.1036   -4.3072    4.5332 O.2       1 <0>        -0.5210
     10 C6          0.1218   -6.3875    3.4691 C.ar      1 <0>        -0.1253
     11 C7          0.1256   -7.0819    2.2581 C.ar      1 <0>        -0.0376
     12 C8          0.1443   -8.4611    2.2575 C.ar      1 <0>        -0.1168
     13 C9          0.1588   -9.1564    3.4538 C.ar      1 <0>        -0.0266
     14 C10         0.1552   -8.4744    4.6574 C.ar      1 <0>        -0.0535
     15 C11         0.1429   -7.0947    4.6720 C.ar      1 <0>         0.0063
     16 N3          0.1704   -9.2263    5.9323 N.pl3     1 <0>         0.0307
     17 O3          0.1859  -10.4351    5.9210 O.2       1 <0>        -0.1484
     18 O4          0.1672   -8.6316    6.9849 O.3       1 <0>        -0.1470
     19 C12        -0.0001   -0.7329   -1.2763 C.ar      1 <0>        -0.0372
     20 C13        -1.1654   -1.3640   -1.7239 C.ar      1 <0>        -0.0655
     21 C14        -1.1597   -2.0444   -2.9226 C.ar      1 <0>        -0.1121
     22 C15        -0.0047   -2.1046   -3.6839 C.ar      1 <0>        -0.1037
     23 C16         1.1523   -1.4836   -3.2495 C.ar      1 <0>        -0.1105
     24 C17         1.1621   -0.7934   -2.0536 C.ar      1 <0>        -0.0202
     25 Cl1         2.6132   -0.0090   -1.5128 Cl        1 <0>        -0.0694
     26 H1          1.0042    1.8801    0.0026 H         1 <0>         0.0890
     27 H2         -0.5455    1.8639   -0.8728 H         1 <0>         0.0784
     28 H3         -0.5286    1.8543    0.9071 H         1 <0>         0.0813
     29 H4          0.0240   -0.1496    2.1043 H         1 <0>         0.1429
     30 H5          0.0639   -2.3478    3.1641 H         1 <0>         0.4345
     31 H6          0.0801   -4.7096    1.4711 H         1 <0>         0.4319
     32 H7          0.1135   -6.5404    1.3237 H         1 <0>         0.1473
     33 H8          0.1472   -8.9995    1.3213 H         1 <0>         0.1596
     34 H9          0.1727  -10.2363    3.4479 H         1 <0>         0.1628
     35 H10         0.1446   -6.5634    5.6122 H         1 <0>         0.1698
     36 H11        -2.0673   -1.3186   -1.1315 H         1 <0>         0.1247
     37 H12        -2.0588   -2.5323   -3.2689 H         1 <0>         0.1274
     38 H13        -0.0073   -2.6397   -4.6220 H         1 <0>         0.1299
     39 H14         2.0491   -1.5352   -3.8490 H         1 <0>         0.1322
@<TRIPOS>BOND
     1    1    2 1
     2    1   26 1
     3    1   27 1
     4    1   28 1
     5    2    3 2
     6    2   19 1
     7    3    4 1
     8    3   29 1
     9    4    5 2
    10    4    6 am
    11    6    7 1
    12    6   30 1
    13    7    8 am
    14    7   31 1
    15    8    9 2
    16    8   10 1
    17   10   15 ar
    18   10   11 ar
    19   11   12 ar
    20   11   32 1
    21   12   13 ar
    22   12   33 1
    23   13   14 ar
    24   13   34 1
    25   14   15 ar
    26   14   16 1
    27   15   35 1
    28   16   17 2
    29   16   18 1
    30   19   24 ar
    31   19   20 ar
    32   20   21 ar
    33   20   36 1
    34   21   22 ar
    35   21   37 1
    36   22   23 ar
    37   22   38 1
    38   23   24 ar
    39   23   39 1
    40   24   25 1
@<TRIPOS>MOLECULE
ZINC09015567
   61    65     0     0     0
SMALL
USER_CHARGES
ethyl (1S,2R,3R,3aS)-1-(4-acetoxybenzoyl)-3-cyano-2-(2-furyl)-2,3a-dihydro-1H-pyrrolo[1,2-a]quinoline-3-carboxylate
@<TRIPOS>ATOM
      1 C1          9.6191    5.1018   -2.0140 C.3       1 <0>        -0.1555
      2 C2          8.1000    5.1756   -1.8478 C.3       1 <0>         0.0604
      3 O1          7.5590    3.8324   -1.7409 O.3       1 <0>        -0.3406
      4 C3          6.2300    3.7209   -1.5894 C.2       1 <0>         0.4872
      5 O2          5.5414    4.7129   -1.5476 O.2       1 <0>        -0.4770
      6 C4          5.5966    2.3586   -1.4716 C.3       1 <0>         0.0587
      7 C5          6.0538    1.6639   -0.1862 C.3       1 <0>         0.1268
      8 H1          6.2827    2.4085    0.5762 H         1 <0>         0.0948
      9 C6          7.2170    0.7346   -0.3560 C.2       1 <0>        -0.1587
     10 C7          7.3607   -0.2173    0.5838 C.2       1 <0>        -0.0733
     11 C8          6.3668   -0.2511    1.6828 C.ar      1 <0>        -0.1009
     12 C9          6.6636   -0.8159    2.9157 C.ar      1 <0>        -0.0705
     13 C10         5.7052   -0.8310    3.9107 C.ar      1 <0>        -0.1456
     14 C11         4.4526   -0.2864    3.6851 C.ar      1 <0>        -0.0792
     15 C12         4.1431    0.2810    2.4622 C.ar      1 <0>        -0.1575
     16 C13         5.0891    0.3067    1.4561 C.ar      1 <0>         0.1378
     17 N1          4.8696    0.8600    0.2178 N.pl3     1 <0>        -0.4628
     18 C14         3.7438    1.7844    0.0437 C.3       1 <0>         0.0505
     19 H2          3.7101    2.4180    0.8167 H         1 <0>         0.0970
     20 C15         4.0599    2.4863   -1.3054 C.3       1 <0>         0.0258
     21 H3          3.7691    3.5359   -1.2638 H         1 <0>         0.1556
     22 C16         3.3485    1.7908   -2.4373 C.2       1 <0>        -0.0473
     23 C17         2.4615    2.3571   -3.2751 C.2       1 <0>        -0.1679
     24 C18         2.0491    1.3496   -4.1772 C.2       1 <0>        -0.2189
     25 C19         2.7026    0.2258   -3.8316 C.2       1 <0>        -0.0142
     26 O3          3.4882    0.4990   -2.7771 O.3       1 <0>        -0.1476
     27 C20         2.4436    1.0274   -0.0433 C.2       1 <0>         0.4014
     28 O4          2.4509   -0.1822   -0.1320 O.2       1 <0>        -0.3978
     29 C21         1.1673    1.7546   -0.0207 C.ar      1 <0>        -0.1602
     30 C22        -0.0420    1.0537   -0.1014 C.ar      1 <0>        -0.0375
     31 C23        -1.2348    1.7401   -0.0846 C.ar      1 <0>        -0.1334
     32 C24        -1.2405    3.1263    0.0233 C.ar      1 <0>         0.1190
     33 C25        -0.0423    3.8272    0.1032 C.ar      1 <0>        -0.1248
     34 C26         1.1561    3.1509    0.0820 C.ar      1 <0>        -0.0611
     35 O5         -2.4197    3.7982    0.0446 O.3       1 <0>        -0.2952
     36 C27        -3.1879    3.6470    1.1358 C.2       1 <0>         0.4581
     37 O6         -2.7741    3.0233    2.0843 O.2       1 <0>        -0.4900
     38 C28        -4.5661    4.2553    1.1773 C.3       1 <0>        -0.1449
     39 C29         5.9215    1.5367   -2.6488 C.1       1 <0>         0.2193
     40 N2          6.1722    0.9024   -3.5573 N.1       1 <0>        -0.3668
     41 H4         10.0554    4.6022   -1.1490 H         1 <0>         0.0704
     42 H5          9.8591    4.5406   -2.9170 H         1 <0>         0.0689
     43 H6         10.0252    6.1102   -2.0942 H         1 <0>         0.0854
     44 H7          7.6637    5.6752   -2.7128 H         1 <0>         0.0766
     45 H8          7.8601    5.7368   -0.9448 H         1 <0>         0.0785
     46 H9          7.9016    0.8238   -1.1865 H         1 <0>         0.1396
     47 H10         8.1702   -0.9308    0.5389 H         1 <0>         0.1381
     48 H11         7.6394   -1.2419    3.0962 H         1 <0>         0.1302
     49 H12         5.9347   -1.2701    4.8704 H         1 <0>         0.1264
     50 H13         3.7110   -0.3050    4.4700 H         1 <0>         0.1264
     51 H14         3.1635    0.7035    2.2943 H         1 <0>         0.1163
     52 H15         2.1297    3.3848   -3.2625 H         1 <0>         0.1522
     53 H16         1.3423    1.4601   -4.9863 H         1 <0>         0.1512
     54 H17         2.6108   -0.7335   -4.3191 H         1 <0>         0.2019
     55 H18        -0.0388   -0.0234   -0.1812 H         1 <0>         0.1419
     56 H19        -2.1681    1.2007   -0.1509 H         1 <0>         0.1348
     57 H20        -0.0521    4.9043    0.1824 H         1 <0>         0.1424
     58 H21         2.0862    3.6962    0.1442 H         1 <0>         0.1384
     59 H22        -5.2912    3.5389    0.7911 H         1 <0>         0.1103
     60 H23        -4.8199    4.5104    2.2062 H         1 <0>         0.1084
     61 H24        -4.5840    5.1566    0.5645 H         1 <0>         0.0987
@<TRIPOS>BOND
     1    1    2 1
     2    1   41 1
     3    1   42 1
     4    1   43 1
     5    2    3 1
     6    2   44 1
     7    2   45 1
     8    3    4 1
     9    4    5 2
    10    4    6 1
    11    6   20 1
    12    6    7 1
    13    6   39 1
    14    7    8 1
    15    7   17 1
    16    7    9 1
    17    9   10 2
    18    9   46 1
    19   10   11 1
    20   10   47 1
    21   11   16 ar
    22   11   12 ar
    23   12   13 ar
    24   12   48 1
    25   13   14 ar
    26   13   49 1
    27   14   15 ar
    28   14   50 1
    29   15   16 ar
    30   15   51 1
    31   16   17 1
    32   17   18 1
    33   18   19 1
    34   18   20 1
    35   18   27 1
    36   20   21 1
    37   20   22 1
    38   22   26 1
    39   22   23 2
    40   23   24 1
    41   23   52 1
    42   24   25 2
    43   24   53 1
    44   25   26 1
    45   25   54 1
    46   27   28 2
    47   27   29 1
    48   29   34 ar
    49   29   30 ar
    50   30   31 ar
    51   30   55 1
    52   31   32 ar
    53   31   56 1
    54   32   33 ar
    55   32   35 1
    56   33   34 ar
    57   33   57 1
    58   34   58 1
    59   35   36 1
    60   36   37 2
    61   36   38 1
    62   38   59 1
    63   38   60 1
    64   38   61 1
    65   39   40 3
@<TRIPOS>MOLECULE
ZINC20982480
   65    68     0     0     0
SMALL
USER_CHARGES
[(1R)-2-(3,4-dihydro-2H-quinolin-1-yl)-1-methyl-2-oxo-ethyl] 5-(dimethylsulfamoyl)-2-pyrrolidin-1-yl-benzoate
@<TRIPOS>ATOM
      1 C1         -3.8554    5.4635   -1.8927 C.3       1 <0>        -0.1726
      2 C2         -3.6535    5.2120   -0.3971 C.3       1 <0>         0.0769
      3 H1         -4.4348    4.5507    0.0057 H         1 <0>         0.1144
      4 C3         -3.6605    6.5270    0.3389 C.2       1 <0>         0.5180
      5 O1         -2.6159    7.0217    0.7065 O.2       1 <0>        -0.4864
      6 N1         -4.8274    7.1533    0.5886 N.am      1 <0>        -0.5488
      7 C4         -6.0859    6.6374    0.0326 C.3       1 <0>         0.0858
      8 C5         -6.8782    7.8230   -0.5234 C.3       1 <0>        -0.1350
      9 C6         -7.2246    8.7712    0.6243 C.3       1 <0>        -0.0796
     10 C7         -5.9906    9.1122    1.4173 C.ar      1 <0>        -0.1151
     11 C8         -4.8601    8.3110    1.3782 C.ar      1 <0>         0.1529
     12 C9         -3.7398    8.6518    2.1269 C.ar      1 <0>        -0.1498
     13 C10        -3.7509    9.7899    2.9087 C.ar      1 <0>        -0.1014
     14 C11        -4.8779   10.5900    2.9453 C.ar      1 <0>        -0.1367
     15 C12        -5.9930   10.2527    2.2025 C.ar      1 <0>        -0.1007
     16 O2         -2.3807    4.5459   -0.1859 O.3       1 <0>        -0.3340
     17 C13        -2.3850    3.1983   -0.2033 C.2       1 <0>         0.5063
     18 O3         -3.4241    2.5964   -0.3899 O.2       1 <0>        -0.4578
     19 C14        -1.1304    2.4550    0.0039 C.ar      1 <0>        -0.1257
     20 C15         0.0836    3.1400    0.1106 C.ar      1 <0>         0.0450
     21 C16         1.2532    2.4389    0.3043 C.ar      1 <0>        -0.6970
     22 C17         1.2342    1.0557    0.3947 C.ar      1 <0>         0.0242
     23 C18         0.0446    0.3649    0.2915 C.ar      1 <0>        -0.1854
     24 C19        -1.1453    1.0537    0.0902 C.ar      1 <0>         0.2061
     25 N2         -2.3431    0.3604   -0.0193 N.pl3     1 <0>        -0.4803
     26 C20        -2.2469   -0.7097   -1.0449 C.3       1 <0>         0.0335
     27 C21        -3.4054   -1.6671   -0.6681 C.3       1 <0>        -0.1192
     28 C22        -3.3878   -1.6394    0.8775 C.3       1 <0>        -0.1250
     29 C23        -2.6768   -0.3247    1.2482 C.3       1 <0>         0.0429
     30 S1          2.7818    3.3049    0.4384 S.o2      1 <0>         2.6936
     31 O4          2.4659    4.6225    0.8667 O.2       1 <0>        -0.9428
     32 O5          3.6652    2.4597    1.1627 O.2       1 <0>        -0.9488
     33 N3          3.4036    3.4405   -1.0904 N.pl3     1 <0>        -1.0045
     34 C24         3.0677    4.6021   -1.9174 C.3       1 <0>         0.0831
     35 C25         4.2895    2.3987   -1.6159 C.3       1 <0>         0.0844
     36 H2         -3.8503    4.5036   -2.4299 H         1 <0>         0.0828
     37 H3         -3.0414    6.0996   -2.2707 H         1 <0>         0.0804
     38 H4         -4.8196    5.9681   -2.0527 H         1 <0>         0.0869
     39 H5         -5.8647    5.9184   -0.7699 H         1 <0>         0.0990
     40 H6         -6.6592    6.1360    0.8263 H         1 <0>         0.0834
     41 H7         -6.2696    8.3523   -1.2713 H         1 <0>         0.0757
     42 H8         -7.8025    7.4576   -0.9948 H         1 <0>         0.0909
     43 H9         -7.6551    9.6979    0.2170 H         1 <0>         0.0836
     44 H10        -7.9555    8.2892    1.2903 H         1 <0>         0.0802
     45 H11        -2.8601    8.0259    2.0974 H         1 <0>         0.1654
     46 H12        -2.8807   10.0545    3.4910 H         1 <0>         0.1260
     47 H13        -4.8867   11.4806    3.5563 H         1 <0>         0.1226
     48 H14        -6.8706   10.8813    2.2348 H         1 <0>         0.1252
     49 H15         0.1043    4.2176    0.0416 H         1 <0>         0.1609
     50 H16         2.1569    0.5154    0.5467 H         1 <0>         0.1490
     51 H17         0.0387   -0.7127    0.3627 H         1 <0>         0.1441
     52 H18        -2.3723   -0.2707   -2.0457 H         1 <0>         0.0861
     53 H19        -1.2617   -1.1943   -0.9779 H         1 <0>         0.0525
     54 H20        -4.3478   -1.2853   -1.0878 H         1 <0>         0.0801
     55 H21        -3.2013   -2.6681   -1.0760 H         1 <0>         0.0771
     56 H22        -4.4202   -1.6620    1.2564 H         1 <0>         0.0790
     57 H23        -2.8399   -2.5159    1.2537 H         1 <0>         0.0728
     58 H24        -1.7528   -0.5280    1.8094 H         1 <0>         0.0524
     59 H25        -3.3371    0.3176    1.8494 H         1 <0>         0.0863
     60 H26         3.5706    4.5161   -2.8919 H         1 <0>         0.0856
     61 H27         3.4014    5.5206   -1.4124 H         1 <0>         0.0732
     62 H28         1.9789    4.6418   -2.0689 H         1 <0>         0.0613
     63 H29         4.5988    2.6618   -2.6382 H         1 <0>         0.0856
     64 H30         3.7561    1.4368   -1.6303 H         1 <0>         0.0595
     65 H31         5.1787    2.3153   -0.9738 H         1 <0>         0.0720
@<TRIPOS>BOND
     1    1    2 1
     2    1   36 1
     3    1   37 1
     4    1   38 1
     5    2    3 1
     6    2    4 1
     7    2   16 1
     8    4    5 2
     9    4    6 am
    10    6   11 1
    11    6    7 1
    12    7    8 1
    13    7   39 1
    14    7   40 1
    15    8    9 1
    16    8   41 1
    17    8   42 1
    18    9   10 1
    19    9   43 1
    20    9   44 1
    21   10   15 ar
    22   10   11 ar
    23   11   12 ar
    24   12   13 ar
    25   12   45 1
    26   13   14 ar
    27   13   46 1
    28   14   15 ar
    29   14   47 1
    30   15   48 1
    31   16   17 1
    32   17   18 2
    33   17   19 1
    34   19   24 ar
    35   19   20 ar
    36   20   21 ar
    37   20   49 1
    38   21   22 ar
    39   21   30 1
    40   22   23 ar
    41   22   50 1
    42   23   24 ar
    43   23   51 1
    44   24   25 1
    45   25   29 1
    46   25   26 1
    47   26   27 1
    48   26   52 1
    49   26   53 1
    50   27   28 1
    51   27   54 1
    52   27   55 1
    53   28   29 1
    54   28   56 1
    55   28   57 1
    56   29   58 1
    57   29   59 1
    58   30   31 2
    59   30   32 2
    60   30   33 1
    61   33   34 1
    62   33   35 1
    63   34   60 1
    64   34   61 1
    65   34   62 1
    66   35   63 1
    67   35   64 1
    68   35   65 1
@<TRIPOS>MOLECULE
ZINC35485689
   58    62     0     0     0
SMALL
USER_CHARGES

@<TRIPOS>ATOM
      1 C1         -0.0187    1.5258    0.0104 C.3       1 <0>        -0.1511
      2 C2          0.0021   -0.0041    0.0020 C.3       1 <0>         0.0508
      3 O1          0.6709   -0.4649   -1.1737 O.3       1 <0>        -0.3008
      4 C3          0.7768   -1.8109   -1.3363 C.ar      1 <0>         0.1118
      5 C4          0.2435   -2.6690   -0.3879 C.ar      1 <0>        -0.1271
      6 C5          0.3516   -4.0370   -0.5549 C.ar      1 <0>        -0.0942
      7 C6          0.9916   -4.5523   -1.6668 C.ar      1 <0>        -0.0952
      8 C7          1.5263   -3.7019   -2.6164 C.ar      1 <0>        -0.1714
      9 C8          1.4160   -2.3297   -2.4582 C.ar      1 <0>         0.1181
     10 O2          1.9361   -1.4917   -3.3945 O.3       1 <0>        -0.2961
     11 C9          2.5780   -2.0947   -4.5199 C.3       1 <0>         0.0848
     12 C10         3.0884   -1.0186   -5.4433 C.2       1 <0>        -0.1566
     13 C11         4.2948   -1.1053   -5.9464 C.2       1 <0>        -0.1687
     14 C12        -0.2290   -4.9686    0.4775 C.3       1 <0>         0.2397
     15 H1         -0.3583   -4.4456    1.4251 H         1 <0>         0.1356
     16 C13        -1.5383   -5.5098    0.0050 C.2       1 <0>        -0.2278
     17 C14        -2.7967   -4.8371   -0.3326 C.2       1 <0>         0.4577
     18 O3         -2.9003   -3.6273   -0.4336 O.2       1 <0>        -0.4201
     19 C15        -3.9326   -5.7706   -0.5400 C.ar      1 <0>        -0.2044
     20 C16        -5.2328   -5.2830   -0.6703 C.ar      1 <0>        -0.0328
     21 C17        -6.2687   -6.1556   -0.8558 C.ar      1 <0>        -0.1039
     22 C18        -6.0296   -7.5215   -0.9143 C.ar      1 <0>        -0.0528
     23 C19        -4.7523   -8.0200   -0.7897 C.ar      1 <0>        -0.1271
     24 C20        -3.6781   -7.1503   -0.6014 C.ar      1 <0>         0.1343
     25 O4         -2.4307   -7.6611   -0.4908 O.3       1 <0>        -0.1762
     26 C21        -1.4197   -6.8683   -0.0839 C.2       1 <0>         0.0944
     27 C22        -0.0559   -7.2408    0.3276 C.2       1 <0>         0.5754
     28 O5          0.3736   -8.3769    0.3655 O.2       1 <0>        -0.4445
     29 N1          0.6482   -6.1370    0.6579 N.am      1 <0>        -0.4905
     30 C23         1.9676   -6.1078    1.0902 C.2       1 <0>         0.2959
     31 N2          2.7292   -5.0790    1.4372 N.2       1 <0>        -0.2868
     32 N3          3.9238   -5.2322    1.8117 N.2       1 <0>        -0.2559
     33 C24         4.4904   -6.4207    1.8822 C.2       1 <0>         0.0587
     34 S1          3.1260   -7.4489    1.3465 S.3       1 <0>         0.0434
     35 C25         5.8866   -6.8046    2.2998 C.3       1 <0>        -0.0604
     36 C26        -7.6749   -5.6327   -0.9976 C.3       1 <0>        -0.1169
     37 H2          1.0039    1.9031    0.0027 H         1 <0>         0.0666
     38 H3         -0.5459    1.8868   -0.8726 H         1 <0>         0.0665
     39 H4         -0.5289    1.8773    0.9072 H         1 <0>         0.0787
     40 H5          0.5293   -0.3651    0.8851 H         1 <0>         0.0627
     41 H6         -1.0205   -0.3814    0.0098 H         1 <0>         0.0648
     42 H7         -0.2563   -2.2690    0.4819 H         1 <0>         0.1408
     43 H8          1.0743   -5.6217   -1.7935 H         1 <0>         0.1151
     44 H9          2.0261   -4.1070   -3.4839 H         1 <0>         0.1370
     45 H10         3.4131   -2.7058   -4.1775 H         1 <0>         0.0671
     46 H11         1.8634   -2.7219   -5.0528 H         1 <0>         0.0720
     47 H12         2.4595   -0.1761   -5.6902 H         1 <0>         0.1213
     48 H13         4.9237   -1.9478   -5.6994 H         1 <0>         0.0993
     49 H14         4.6606   -0.3341   -6.6081 H         1 <0>         0.1094
     50 H15        -5.4204   -4.2204   -0.6252 H         1 <0>         0.1467
     51 H16        -6.8557   -8.2018   -1.0596 H         1 <0>         0.1455
     52 H17        -4.5820   -9.0854   -0.8371 H         1 <0>         0.1499
     53 H18         5.9064   -6.9909    3.3736 H         1 <0>         0.0988
     54 H19         6.1894   -7.7071    1.7688 H         1 <0>         0.0927
     55 H20         6.5738   -5.9935    2.0590 H         1 <0>         0.1033
     56 H21        -7.8869   -5.4411   -2.0495 H         1 <0>         0.0773
     57 H22        -8.3780   -6.3721   -0.6141 H         1 <0>         0.0731
     58 H23        -7.7769   -4.7066   -0.4319 H         1 <0>         0.0726
@<TRIPOS>BOND
     1    1    2 1
     2    1   37 1
     3    1   38 1
     4    1   39 1
     5    2    3 1
     6    2   40 1
     7    2   41 1
     8    3    4 1
     9    4    9 ar
    10    4    5 ar
    11    5    6 ar
    12    5   42 1
    13    6    7 ar
    14    6   14 1
    15    7    8 ar
    16    7   43 1
    17    8    9 ar
    18    8   44 1
    19    9   10 1
    20   10   11 1
    21   11   12 1
    22   11   45 1
    23   11   46 1
    24   12   13 2
    25   12   47 1
    26   13   48 1
    27   13   49 1
    28   14   15 1
    29   14   29 1
    30   14   16 1
    31   16   26 2
    32   16   17 1
    33   17   18 2
    34   17   19 1
    35   19   24 ar
    36   19   20 ar
    37   20   21 ar
    38   20   50 1
    39   21   22 ar
    40   21   36 1
    41   22   23 ar
    42   22   51 1
    43   23   24 ar
    44   23   52 1
    45   24   25 1
    46   25   26 1
    47   26   27 1
    48   27   28 2
    49   27   29 am
    50   29   30 1
    51   30   34 1
    52   30   31 2
    53   31   32 1
    54   32   33 2
    55   33   34 1
    56   33   35 1
    57   35   53 1
    58   35   54 1
    59   35   55 1
    60   36   56 1
    61   36   57 1
    62   36   58 1
@<TRIPOS>MOLECULE
ZINC39868091
   53    57     0     0     0
SMALL
USER_CHARGES

@<TRIPOS>ATOM
      1 C1         -4.0801   -0.9626   -1.6624 C.3       1 <0>         0.0236
      2 O1         -2.8442   -1.5418   -1.2391 O.3       1 <0>        -0.3122
      3 C2         -2.1026   -2.1714   -2.1856 C.ar      1 <0>         0.1533
      4 C3         -2.5559   -2.2243   -3.4989 C.ar      1 <0>        -0.2159
      5 C4         -1.8079   -2.8620   -4.4626 C.ar      1 <0>        -0.0403
      6 C5         -0.5885   -3.4575   -4.1184 C.ar      1 <0>        -0.1359
      7 C6         -0.1365   -3.4009   -2.7946 C.ar      1 <0>        -0.0480
      8 C7         -0.8897   -2.7562   -1.8396 C.ar      1 <0>        -0.1574
      9 C8          0.2139   -4.1399   -5.1430 C.2       1 <0>         0.0365
     10 C9          1.3904   -4.7138   -4.8082 C.2       1 <0>        -0.2290
     11 C10         2.1644   -5.3722   -5.7966 C.2       1 <0>         0.5076
     12 O2          1.7694   -5.4204   -6.9462 O.2       1 <0>        -0.4975
     13 O3          3.3395   -5.9454   -5.4622 O.3       1 <0>        -0.2967
     14 C11         3.9986   -6.6516   -6.4164 C.ar      1 <0>         0.1231
     15 C12         4.7173   -5.9825   -7.4006 C.ar      1 <0>        -0.1156
     16 C13         5.3878   -6.6933   -8.3702 C.ar      1 <0>        -0.0719
     17 C14         5.3449   -8.0933   -8.3639 C.ar      1 <0>        -0.1014
     18 C15         4.6192   -8.7621   -7.3699 C.ar      1 <0>        -0.0564
     19 C16         3.9569   -8.0412   -6.4022 C.ar      1 <0>        -0.1208
     20 C17         6.0574   -8.8567   -9.3955 C.2       1 <0>         0.0998
     21 C18         7.0350   -8.2612  -10.1279 C.2       1 <0>        -0.2406
     22 C19         7.7672   -8.7691  -11.2978 C.2       1 <0>         0.5627
     23 O4          7.5369   -9.8733  -11.7538 O.2       1 <0>        -0.4335
     24 N1          8.6952   -7.9744  -11.8438 N.am      1 <0>        -0.5106
     25 C20         9.5983   -8.0234  -12.9106 C.2       1 <0>         0.2845
     26 N2         10.2552   -6.8902  -12.9254 N.2       1 <0>        -0.2387
     27 N3          9.8507   -6.1325  -11.9683 N.2       1 <0>        -0.2164
     28 C21         8.9168   -6.7382  -11.2925 C.2       1 <0>         0.1611
     29 S1          7.7738   -6.6454   -9.9353 S.3       1 <0>         0.1686
     30 C22         9.7789   -9.1486  -13.8497 C.ar      1 <0>         0.0011
     31 C23         8.7072   -9.9866  -14.1840 C.ar      1 <0>        -0.1306
     32 C24         8.9209  -11.0250  -15.0655 C.ar      1 <0>         0.1042
     33 N4         10.1134  -11.2337  -15.5911 N.ar      1 <0>        -0.4670
     34 C25        11.1497  -10.4687  -15.3036 C.ar      1 <0>         0.1018
     35 C26        11.0253   -9.4044  -14.4359 C.ar      1 <0>        -0.1204
     36 H1         -3.8861   -0.2126   -2.4292 H         1 <0>         0.0594
     37 H2         -4.7253   -1.7408   -2.0702 H         1 <0>         0.0594
     38 H3         -4.5717   -0.4926   -0.8106 H         1 <0>         0.1047
     39 H4         -3.4967   -1.7646   -3.7634 H         1 <0>         0.1356
     40 H5         -2.1612   -2.9031   -5.4823 H         1 <0>         0.1345
     41 H6          0.8033   -3.8590   -2.5238 H         1 <0>         0.1394
     42 H7         -0.5398   -2.7082   -0.8190 H         1 <0>         0.1386
     43 H8         -0.1367   -4.1828   -6.1636 H         1 <0>         0.1405
     44 H9          1.7410   -4.6710   -3.7876 H         1 <0>         0.1447
     45 H10         4.7494   -4.9029   -7.4046 H         1 <0>         0.1412
     46 H11         5.9455   -6.1724   -9.1344 H         1 <0>         0.1388
     47 H12         4.5825   -9.8415   -7.3605 H         1 <0>         0.1472
     48 H13         3.4004   -8.5559   -5.6329 H         1 <0>         0.1442
     49 H14         5.8048   -9.8918   -9.5724 H         1 <0>         0.1706
     50 H15         7.7288   -9.8220  -13.7575 H         1 <0>         0.1456
     51 H16         8.1012  -11.6769  -15.3293 H         1 <0>         0.1657
     52 H17        12.1074  -10.6769  -15.7571 H         1 <0>         0.1689
     53 H18        11.8766   -8.7798  -14.2087 H         1 <0>         0.1499
@<TRIPOS>BOND
     1    1    2 1
     2    1   36 1
     3    1   37 1
     4    1   38 1
     5    2    3 1
     6    3    8 ar
     7    3    4 ar
     8    4    5 ar
     9    4   39 1
    10    5    6 ar
    11    5   40 1
    12    6    7 ar
    13    6    9 1
    14    7    8 ar
    15    7   41 1
    16    8   42 1
    17    9   10 2
    18    9   43 1
    19   10   11 1
    20   10   44 1
    21   11   12 2
    22   11   13 1
    23   13   14 1
    24   14   19 ar
    25   14   15 ar
    26   15   16 ar
    27   15   45 1
    28   16   17 ar
    29   16   46 1
    30   17   18 ar
    31   17   20 1
    32   18   19 ar
    33   18   47 1
    34   19   48 1
    35   20   21 2
    36   20   49 1
    37   21   29 1
    38   21   22 1
    39   22   23 2
    40   22   24 am
    41   24   28 1
    42   24   25 1
    43   25   26 2
    44   25   30 1
    45   26   27 1
    46   27   28 2
    47   28   29 1
    48   30   35 ar
    49   30   31 ar
    50   31   32 ar
    51   31   50 1
    52   32   33 ar
    53   32   51 1
    54   33   34 ar
    55   34   35 ar
    56   34   52 1
    57   35   53 1
@<TRIPOS>MOLECULE
ZINC13811289
   58    62     0     0     0
SMALL
USER_CHARGES

@<TRIPOS>ATOM
      1 C1         -0.0173    1.4248    0.0099 C.3       1 <0>         0.0269
      2 O1          0.0021   -0.0041    0.0020 O.3       1 <0>        -0.3052
      3 C2          0.6066   -0.6079   -1.0571 C.ar      1 <0>         0.0639
      4 C3          1.1727    0.1595   -2.0619 C.ar      1 <0>        -0.1021
      5 C4          1.7869   -0.4531   -3.1381 C.ar      1 <0>        -0.1419
      6 C5          1.8378   -1.8370   -3.2144 C.ar      1 <0>         0.1495
      7 C6          1.2723   -2.6088   -2.2107 C.ar      1 <0>        -0.2635
      8 C7          0.6614   -1.9963   -1.1285 C.ar      1 <0>         0.1507
      9 O2          0.1116   -2.7512   -0.1400 O.3       1 <0>        -0.2996
     10 C8          0.2050   -4.1703   -0.2792 C.3       1 <0>         0.0240
     11 O3          2.4421   -2.4374   -4.2743 O.3       1 <0>        -0.3086
     12 C9          2.4580   -3.8662   -4.2882 C.3       1 <0>         0.0261
     13 C10         2.4015    0.3839   -4.2302 C.3       1 <0>         0.2236
     14 H1          2.1947   -0.0489   -5.2090 H         1 <0>         0.1244
     15 C11         3.9252    0.5387   -4.0103 C.3       1 <0>        -0.1482
     16 H2          4.3622   -0.2837   -3.4440 H         1 <0>         0.1616
     17 C12         4.0473    1.9124   -3.2965 C.3       1 <0>         0.0417
     18 H3          4.5955    1.8471   -2.3567 H         1 <0>         0.1743
     19 C13         4.7546    2.7751   -4.3167 C.2       1 <0>         0.5158
     20 O4          5.0451    3.9424   -4.1664 O.2       1 <0>        -0.4435
     21 N1          5.0101    2.0493   -5.4114 N.am      1 <0>        -0.5281
     22 C14         4.5930    0.7600   -5.3492 C.2       1 <0>         0.5423
     23 O5          4.7251   -0.0798   -6.2135 O.2       1 <0>        -0.4389
     24 C15         5.6642    2.5756   -6.5347 C.ar      1 <0>         0.1118
     25 C16         7.0472    2.5045   -6.6311 C.ar      1 <0>        -0.0868
     26 C17         7.6888    3.0237   -7.7385 C.ar      1 <0>        -0.1060
     27 C18         6.9554    3.6146   -8.7511 C.ar      1 <0>        -0.0898
     28 C19         5.5779    3.6878   -8.6588 C.ar      1 <0>        -0.1040
     29 C20         4.9292    3.1640   -7.5560 C.ar      1 <0>        -0.0214
     30 Cl1         3.1989    3.2491   -7.4438 Cl        1 <0>        -0.0413
     31 O6          2.6983    2.3754   -3.1111 O.3       1 <0>        -0.1117
     32 N2          1.9113    1.7817   -4.1598 N.pl3     1 <0>        -0.5065
     33 C21         0.9107    2.3766   -4.9318 C.ar      1 <0>         0.2473
     34 C22         0.2443    1.6349   -5.8989 C.ar      1 <0>        -0.1795
     35 C23        -0.7448    2.2260   -6.6602 C.ar      1 <0>        -0.0714
     36 C24        -1.0717    3.5548   -6.4608 C.ar      1 <0>        -0.1655
     37 C25        -0.4102    4.2960   -5.4989 C.ar      1 <0>        -0.0737
     38 C26         0.5759    3.7096   -4.7302 C.ar      1 <0>        -0.1731
     39 H4          1.0053    1.8021    0.0021 H         1 <0>         0.0556
     40 H5         -0.5445    1.7859   -0.8732 H         1 <0>         0.0542
     41 H6         -0.5275    1.7763    0.9067 H         1 <0>         0.1009
     42 H7          1.1338    1.2373   -2.0046 H         1 <0>         0.1546
     43 H8          1.3121   -3.6864   -2.2702 H         1 <0>         0.1452
     44 H9         -0.2960   -4.4791   -1.1966 H         1 <0>         0.0558
     45 H10         1.2542   -4.4629   -0.3220 H         1 <0>         0.0559
     46 H11        -0.2718   -4.6513    0.5748 H         1 <0>         0.1042
     47 H12         1.4344   -4.2410   -4.2838 H         1 <0>         0.0563
     48 H13         2.9688   -4.2152   -5.1856 H         1 <0>         0.1045
     49 H14         2.9827   -4.2324   -3.4058 H         1 <0>         0.0566
     50 H15         7.6210    2.0439   -5.8405 H         1 <0>         0.1361
     51 H16         8.7648    2.9685   -7.8136 H         1 <0>         0.1405
     52 H17         7.4597    4.0201   -9.6158 H         1 <0>         0.1415
     53 H18         5.0078    4.1505   -9.4508 H         1 <0>         0.1434
     54 H19         0.4996    0.5973   -6.0556 H         1 <0>         0.1218
     55 H20        -1.2634    1.6499   -7.4123 H         1 <0>         0.1266
     56 H21        -1.8451    4.0148   -7.0580 H         1 <0>         0.1222
     57 H22        -0.6680    5.3336   -5.3457 H         1 <0>         0.1249
     58 H23         1.0890    4.2878   -3.9760 H         1 <0>         0.1257
@<TRIPOS>BOND
     1    1    2 1
     2    1   39 1
     3    1   40 1
     4    1   41 1
     5    2    3 1
     6    3    8 ar
     7    3    4 ar
     8    4    5 ar
     9    4   42 1
    10    5    6 ar
    11    5   13 1
    12    6    7 ar
    13    6   11 1
    14    7    8 ar
    15    7   43 1
    16    8    9 1
    17    9   10 1
    18   10   44 1
    19   10   45 1
    20   10   46 1
    21   11   12 1
    22   12   47 1
    23   12   48 1
    24   12   49 1
    25   13   14 1
    26   13   32 1
    27   13   15 1
    28   15   16 1
    29   15   22 1
    30   15   17 1
    31   17   18 1
    32   17   19 1
    33   17   31 1
    34   19   20 2
    35   19   21 am
    36   21   22 am
    37   21   24 1
    38   22   23 2
    39   24   29 ar
    40   24   25 ar
    41   25   26 ar
    42   25   50 1
    43   26   27 ar
    44   26   51 1
    45   27   28 ar
    46   27   52 1
    47   28   29 ar
    48   28   53 1
    49   29   30 1
    50   31   32 1
    51   32   33 1
    52   33   38 ar
    53   33   34 ar
    54   34   35 ar
    55   34   54 1
    56   35   36 ar
    57   35   55 1
    58   36   37 ar
    59   36   56 1
    60   37   38 ar
    61   37   57 1
    62   38   58 1
@<TRIPOS>MOLECULE
ZINC10099116
   64    67     0     0     0
SMALL
USER_CHARGES
N-(6-ethoxybenzothiazol-2-yl)-4-(isopropyl-methyl-sulfamoyl)-N-(3-pyridylmethyl)benzamide
@<TRIPOS>ATOM
      1 C1          0.4979   -8.0523   -5.7286 C.3       1 <0>        -0.1539
      2 C2          1.0271   -7.1517   -4.6106 C.3       1 <0>         0.0527
      3 O1          1.1669   -5.8166   -5.1004 O.3       1 <0>        -0.3079
      4 C3          1.6298   -4.8836   -4.2261 C.ar      1 <0>         0.1503
      5 C4          1.9455   -5.2396   -2.9181 C.ar      1 <0>        -0.1894
      6 C5          2.4125   -4.3173   -2.0193 C.ar      1 <0>        -0.0233
      7 C6          2.5906   -2.9657   -2.3950 C.ar      1 <0>         0.0622
      8 C7          2.2608   -2.6385   -3.7298 C.ar      1 <0>        -0.1381
      9 C8          1.7927   -3.5659   -4.6270 C.ar      1 <0>        -0.0985
     10 S1          2.6094   -0.8973   -3.7898 S.3       1 <0>         0.0981
     11 C9          3.1615   -0.7202   -2.0992 C.2       1 <0>         0.3495
     12 N1          3.0384   -1.9413   -1.6351 N.2       1 <0>        -0.5191
     13 N2          3.6016    0.4178   -1.4440 N.am      1 <0>        -0.4949
     14 C10         4.0066    0.3431   -0.0381 C.3       1 <0>         0.1248
     15 C11         2.9903   -0.4565    0.7357 C.ar      1 <0>        -0.1713
     16 C12         3.2011   -1.8037    0.9880 C.ar      1 <0>         0.0041
     17 C13         2.2368   -2.5005    1.6995 C.ar      1 <0>        -0.1803
     18 C14         1.1103   -1.8316    2.1402 C.ar      1 <0>         0.1121
     19 N3          0.9431   -0.5494    1.8818 N.ar      1 <0>        -0.4888
     20 C15         1.8367    0.1436    1.2032 C.ar      1 <0>         0.1166
     21 C16         3.6572    1.5940   -2.0997 C.2       1 <0>         0.5608
     22 O2          3.2162    1.6817   -3.2290 O.2       1 <0>        -0.4740
     23 C17         4.2544    2.7771   -1.4457 C.ar      1 <0>        -0.0707
     24 C18         3.9099    3.1006   -0.1321 C.ar      1 <0>        -0.1209
     25 C19         4.4750    4.2034    0.4742 C.ar      1 <0>        -0.0184
     26 C20         5.3731    4.9943   -0.2203 C.ar      1 <0>        -0.6550
     27 C21         5.7146    4.6826   -1.5244 C.ar      1 <0>        -0.0157
     28 C22         5.1612    3.5794   -2.1407 C.ar      1 <0>        -0.0791
     29 S2          6.0855    6.4046    0.5596 S.o2      1 <0>         2.6870
     30 O3          6.0222    6.1697    1.9596 O.2       1 <0>        -0.9471
     31 O4          7.3088    6.6667   -0.1143 O.2       1 <0>        -0.9474
     32 N4          5.0895    7.6908    0.2499 N.pl3     1 <0>        -0.9927
     33 C23         5.3043    8.5129   -0.9435 C.3       1 <0>         0.0777
     34 C24         3.9935    8.0066    1.1693 C.3       1 <0>         0.1366
     35 C25         4.1839    9.4199    1.7235 C.3       1 <0>        -0.1619
     36 C26         2.6613    7.9272    0.4212 C.3       1 <0>        -0.1654
     37 H1         -0.4721   -7.6844   -6.0631 H         1 <0>         0.0678
     38 H2          1.1977   -8.0432   -6.5643 H         1 <0>         0.0678
     39 H3          0.3912   -9.0707   -5.3551 H         1 <0>         0.0809
     40 H4          1.9971   -7.5196   -4.2762 H         1 <0>         0.0652
     41 H5          0.3273   -7.1607   -3.7750 H         1 <0>         0.0651
     42 H6          1.8191   -6.2654   -2.6048 H         1 <0>         0.1386
     43 H7          2.6485   -4.6264   -1.0118 H         1 <0>         0.1342
     44 H8          1.5525   -3.2715   -5.6379 H         1 <0>         0.1409
     45 H9          4.0689    1.3494    0.3761 H         1 <0>         0.1304
     46 H10         4.9808   -0.1405    0.0342 H         1 <0>         0.0965
     47 H11         4.0933   -2.2993    0.6346 H         1 <0>         0.1359
     48 H12         2.3661   -3.5518    1.9106 H         1 <0>         0.1348
     49 H13         0.3565   -2.3662    2.6990 H         1 <0>         0.1554
     50 H14         1.6650    1.1924    1.0109 H         1 <0>         0.1461
     51 H15         3.2059    2.4864    0.4098 H         1 <0>         0.1502
     52 H16         4.2131    4.4521    1.4920 H         1 <0>         0.1528
     53 H17         6.4162    5.3041   -2.0610 H         1 <0>         0.1532
     54 H18         5.4291    3.3367   -3.1584 H         1 <0>         0.1477
     55 H19         4.7313    8.1028   -1.7751 H         1 <0>         0.0576
     56 H20         4.9773    9.5336   -0.7453 H         1 <0>         0.0829
     57 H21         6.3642    8.5139   -1.1980 H         1 <0>         0.0853
     58 H22         3.9916    7.2911    1.9917 H         1 <0>         0.1016
     59 H23         4.1858   10.1354    0.9012 H         1 <0>         0.0632
     60 H24         3.3684    9.6549    2.4076 H         1 <0>         0.0718
     61 H25         5.1330    9.4764    2.2565 H         1 <0>         0.0626
     62 H26         2.5257    6.9203    0.0264 H         1 <0>         0.0586
     63 H27         1.8458    8.1622    1.1053 H         1 <0>         0.0709
     64 H28         2.6632    8.6427   -0.4012 H         1 <0>         0.0636
@<TRIPOS>BOND
     1    1    2 1
     2    1   37 1
     3    1   38 1
     4    1   39 1
     5    2    3 1
     6    2   40 1
     7    2   41 1
     8    3    4 1
     9    4    9 ar
    10    4    5 ar
    11    5    6 ar
    12    5   42 1
    13    6    7 ar
    14    6   43 1
    15    7   12 1
    16    7    8 ar
    17    8    9 ar
    18    8   10 1
    19    9   44 1
    20   10   11 1
    21   11   12 2
    22   11   13 1
    23   13   14 1
    24   13   21 am
    25   14   15 1
    26   14   45 1
    27   14   46 1
    28   15   20 ar
    29   15   16 ar
    30   16   17 ar
    31   16   47 1
    32   17   18 ar
    33   17   48 1
    34   18   19 ar
    35   18   49 1
    36   19   20 ar
    37   20   50 1
    38   21   22 2
    39   21   23 1
    40   23   28 ar
    41   23   24 ar
    42   24   25 ar
    43   24   51 1
    44   25   26 ar
    45   25   52 1
    46   26   27 ar
    47   26   29 1
    48   27   28 ar
    49   27   53 1
    50   28   54 1
    51   29   30 2
    52   29   31 2
    53   29   32 1
    54   32   33 1
    55   32   34 1
    56   33   55 1
    57   33   56 1
    58   33   57 1
    59   34   35 1
    60   34   36 1
    61   34   58 1
    62   35   59 1
    63   35   60 1
    64   35   61 1
    65   36   62 1
    66   36   63 1
    67   36   64 1
@<TRIPOS>MOLECULE
ZINC24522231
   49    51     0     0     0
SMALL
USER_CHARGES
(3-nitrophenyl)methyl (2R)-2-(5,6-dichloro-1,3-dioxo-isoindolin-2-yl)-4-methylsulfonyl-butanoate
@<TRIPOS>ATOM
      1 C1         -2.5880    7.8515   -7.6257 C.3       1 <0>        -0.6566
      2 S1         -2.8218    7.1805   -5.9567 S.o2      1 <0>         2.4201
      3 O1         -2.7772    5.7622   -6.0321 O.2       1 <0>        -0.9296
      4 O2         -3.9576    7.8062   -5.3756 O.2       1 <0>        -0.9291
      5 C2         -1.3400    7.7555   -5.0824 C.3       1 <0>        -0.6256
      6 C3         -1.3808    7.2665   -3.6333 C.3       1 <0>        -0.1262
      7 C4         -0.1310    7.7515   -2.8959 C.3       1 <0>         0.1653
      8 H1          0.7831    7.4623   -3.4351 H         1 <0>         0.1580
      9 C5         -0.1099    7.1689   -1.5062 C.2       1 <0>         0.4588
     10 O3         -0.1107    7.9003   -0.5445 O.2       1 <0>        -0.4771
     11 O4         -0.0902    5.8375   -1.3368 O.3       1 <0>        -0.3426
     12 C6         -0.0705    5.3471    0.0297 C.3       1 <0>         0.1072
     13 C7         -0.0501    3.8402    0.0223 C.ar      1 <0>        -0.0988
     14 C8          1.1565    3.1653    0.0076 C.ar      1 <0>        -0.0421
     15 C9          1.1752    1.7833    0.0004 C.ar      1 <0>        -0.1167
     16 C10        -0.0126    1.0758    0.0080 C.ar      1 <0>        -0.0417
     17 C11        -1.2188    1.7505    0.0173 C.ar      1 <0>        -0.0450
     18 C12        -1.2375    3.1329    0.0299 C.ar      1 <0>        -0.0296
     19 N1         -2.4905    0.9931    0.0193 N.pl3     1 <0>         0.0254
     20 O5         -2.4740   -0.2248    0.0126 O.2       1 <0>        -0.1531
     21 O6         -3.5535    1.5877    0.0276 O.3       1 <0>        -0.1528
     22 N2         -0.1501    9.2139   -2.8121 N.am      1 <0>        -0.5683
     23 C13        -1.1178    9.9293   -2.2108 C.2       1 <0>         0.5795
     24 O7         -2.0988    9.4721   -1.6597 O.2       1 <0>        -0.4275
     25 C14        -0.7862   11.3642   -2.3308 C.ar      1 <0>        -0.1173
     26 C15        -1.3961   12.5362   -1.9129 C.ar      1 <0>        -0.0223
     27 C16        -0.8074   13.7585   -2.2011 C.ar      1 <0>        -0.0105
     28 C17         0.3851   13.8144   -2.9034 C.ar      1 <0>        -0.0149
     29 C18         1.0056   12.6486   -3.3274 C.ar      1 <0>        -0.0206
     30 C19         0.4278   11.4211   -3.0458 C.ar      1 <0>        -0.1266
     31 C20         0.7947   10.0185   -3.3314 C.2       1 <0>         0.5849
     32 O8          1.7838    9.6531   -3.9341 O.2       1 <0>        -0.4467
     33 Cl1         1.1076   15.3532   -3.2553 Cl        1 <0>        -0.0143
     34 Cl2        -1.5704   15.2278   -1.6788 Cl        1 <0>        -0.0132
     35 H2         -2.6196    8.9504   -7.5868 H         1 <0>         0.1312
     36 H3         -3.3893    7.4846   -8.2839 H         1 <0>         0.1365
     37 H4         -1.6133    7.5264   -8.0184 H         1 <0>         0.1320
     38 H5         -0.4433    7.3563   -5.5789 H         1 <0>         0.1471
     39 H6         -1.3088    8.8550   -5.0976 H         1 <0>         0.1302
     40 H7         -2.2775    7.6657   -3.1368 H         1 <0>         0.1097
     41 H8         -1.4120    6.1670   -3.6180 H         1 <0>         0.1233
     42 H9          0.8275    5.7235    0.5414 H         1 <0>         0.0954
     43 H10        -0.9685    5.6991    0.5586 H         1 <0>         0.0951
     44 H11         2.0843    3.7180    0.0014 H         1 <0>         0.1470
     45 H12         2.1177    1.2561   -0.0115 H         1 <0>         0.1541
     46 H13         0.0021   -0.0041    0.0020 H         1 <0>         0.1584
     47 H14        -2.1800    3.6602    0.0411 H         1 <0>         0.1577
     48 H15        -2.3262   12.4980   -1.3653 H         1 <0>         0.1666
     49 H16         1.9354   12.6975   -3.8747 H         1 <0>         0.1657
@<TRIPOS>BOND
     1    1    2 1
     2    1   35 1
     3    1   36 1
     4    1   37 1
     5    2    3 2
     6    2    4 2
     7    2    5 1
     8    5    6 1
     9    5   38 1
    10    5   39 1
    11    6    7 1
    12    6   40 1
    13    6   41 1
    14    7    8 1
    15    7    9 1
    16    7   22 1
    17    9   10 2
    18    9   11 1
    19   11   12 1
    20   12   13 1
    21   12   42 1
    22   12   43 1
    23   13   18 ar
    24   13   14 ar
    25   14   15 ar
    26   14   44 1
    27   15   16 ar
    28   15   45 1
    29   16   17 ar
    30   16   46 1
    31   17   18 ar
    32   17   19 1
    33   18   47 1
    34   19   20 2
    35   19   21 1
    36   22   31 am
    37   22   23 am
    38   23   24 2
    39   23   25 1
    40   25   30 ar
    41   25   26 ar
    42   26   27 ar
    43   26   48 1
    44   27   28 ar
    45   27   34 1
    46   28   29 ar
    47   28   33 1
    48   29   30 ar
    49   29   49 1
    50   30   31 1
    51   31   32 2
@<TRIPOS>MOLECULE
ZINC36117525
   65    69     0     0     0
SMALL
USER_CHARGES

@<TRIPOS>ATOM
      1 C1          2.4794    1.3804    4.0898 C.3       1 <0>         0.0270
      2 O1          2.1603    0.0735    3.6078 O.3       1 <0>        -0.3143
      3 C2          2.5734   -0.2387    2.3514 C.ar      1 <0>         0.1664
      4 C3          3.2768    0.6925    1.6001 C.ar      1 <0>        -0.2450
      5 C4          3.6971    0.3758    0.3227 C.ar      1 <0>        -0.0390
      6 C5          3.4180   -0.8683   -0.2104 C.ar      1 <0>        -0.2449
      7 C6          2.7151   -1.8027    0.5366 C.ar      1 <0>         0.1687
      8 C7          2.2976   -1.4894    1.8212 C.ar      1 <0>        -0.1876
      9 O2          2.4409   -3.0259    0.0118 O.3       1 <0>        -0.2990
     10 C8          2.9065   -3.2819   -1.3147 C.3       1 <0>         0.0570
     11 C9          2.5065   -4.6987   -1.7311 C.3       1 <0>         0.2115
     12 H1          2.7807   -4.8687   -2.7723 H         1 <0>         0.1305
     13 C10         1.0003   -4.8837   -1.5559 C.2       1 <0>        -0.1285
     14 C11         0.0564   -4.3077   -2.4048 C.2       1 <0>        -0.1450
     15 C12        -1.2630   -4.5112   -2.1866 C.2       1 <0>        -0.1705
     16 S1         -1.2396   -5.5531   -0.7357 S.3       1 <0>         0.0528
     17 C13         0.5200   -5.6406   -0.5323 C.2       1 <0>        -0.1312
     18 C14         1.2983   -6.3738    0.5113 C.3       1 <0>        -0.0594
     19 C15         2.7373   -5.8353    0.5216 C.3       1 <0>         0.1037
     20 N1          3.1834   -5.6796   -0.8719 N.am      1 <0>        -0.6042
     21 C16         4.1964   -6.4264   -1.3540 C.2       1 <0>         0.4923
     22 O3          4.5552   -6.2914   -2.5046 O.2       1 <0>        -0.5128
     23 C17         4.8833   -7.4294   -0.4633 C.3       1 <0>         0.0561
     24 N2          5.9412   -8.1075   -1.2165 N.am      1 <0>        -0.5834
     25 C18         7.2233   -7.4364   -1.4447 C.3       1 <0>         0.1514
     26 C19         8.2048   -7.8527   -0.3797 C.2       1 <0>        -0.1866
     27 C20         9.3687   -8.3489   -0.7194 C.2       1 <0>        -0.1573
     28 C21         5.7350   -9.3488   -1.6994 C.2       1 <0>         0.5715
     29 O4          6.6256   -9.9260   -2.2926 O.2       1 <0>        -0.5140
     30 C22         4.4279  -10.0074   -1.5082 C.ar      1 <0>        -0.1230
     31 C23         3.2823   -9.2390   -1.2871 C.ar      1 <0>        -0.1057
     32 C24         2.0630   -9.8553   -1.1098 C.ar      1 <0>        -0.1049
     33 C25         1.9675  -11.2400   -1.1495 C.ar      1 <0>         0.0633
     34 C26         3.1081  -12.0132   -1.3693 C.ar      1 <0>         0.0300
     35 C27         4.3323  -11.4005   -1.5535 C.ar      1 <0>        -0.0404
     36 O5          2.7490  -13.3305   -1.3628 O.3       1 <0>        -0.3024
     37 C28         1.4555  -13.3724   -0.7319 C.3       1 <0>         0.2115
     38 O6          0.8980  -12.0738   -1.0066 O.3       1 <0>        -0.3025
     39 H2          3.5616    1.5110    4.0963 H         1 <0>         0.0575
     40 H3          2.0272    2.1283    3.4384 H         1 <0>         0.0574
     41 H4          2.0930    1.4987    5.1021 H         1 <0>         0.1026
     42 H5          3.4955    1.6657    2.0143 H         1 <0>         0.1293
     43 H6          4.2443    1.1017   -0.2603 H         1 <0>         0.1279
     44 H7          3.7469   -1.1133   -1.2095 H         1 <0>         0.1277
     45 H8          1.7543   -2.2169    2.4059 H         1 <0>         0.1374
     46 H9          2.4610   -2.5620   -2.0014 H         1 <0>         0.0782
     47 H10         3.9920   -3.1875   -1.3433 H         1 <0>         0.0738
     48 H11         0.3786   -3.6987   -3.2364 H         1 <0>         0.1311
     49 H12        -2.1101   -4.1399   -2.7442 H         1 <0>         0.1871
     50 H13         0.8412   -6.2142    1.4879 H         1 <0>         0.0996
     51 H14         1.3081   -7.4388    0.2793 H         1 <0>         0.0871
     52 H15         2.7644   -4.8692    1.0257 H         1 <0>         0.1038
     53 H16         3.3892   -6.5389    1.0393 H         1 <0>         0.0942
     54 H17         5.3194   -6.9158    0.3935 H         1 <0>         0.1131
     55 H18         4.1570   -8.1639   -0.1155 H         1 <0>         0.1392
     56 H19         7.6103   -7.7158   -2.4247 H         1 <0>         0.0915
     57 H20         7.0803   -6.3565   -1.4049 H         1 <0>         0.0863
     58 H21         7.9488   -7.7420    0.6637 H         1 <0>         0.1095
     59 H22        10.0391   -8.7222    0.0405 H         1 <0>         0.1002
     60 H23         9.6577   -8.3846   -1.7594 H         1 <0>         0.1000
     61 H24         3.3524   -8.1617   -1.2555 H         1 <0>         0.1532
     62 H25         1.1785   -9.2595   -0.9391 H         1 <0>         0.1429
     63 H26         5.2150  -11.9977   -1.7287 H         1 <0>         0.1505
     64 H27         0.8390  -14.1550   -1.1739 H         1 <0>         0.1370
     65 H28         1.5583  -13.5254    0.3424 H         1 <0>         0.0901
@<TRIPOS>BOND
     1    1    2 1
     2    1   39 1
     3    1   40 1
     4    1   41 1
     5    2    3 1
     6    3    8 ar
     7    3    4 ar
     8    4    5 ar
     9    4   42 1
    10    5    6 ar
    11    5   43 1
    12    6    7 ar
    13    6   44 1
    14    7    8 ar
    15    7    9 1
    16    8   45 1
    17    9   10 1
    18   10   11 1
    19   10   46 1
    20   10   47 1
    21   11   12 1
    22   11   20 1
    23   11   13 1
    24   13   17 2
    25   13   14 1
    26   14   15 2
    27   14   48 1
    28   15   16 1
    29   15   49 1
    30   16   17 1
    31   17   18 1
    32   18   19 1
    33   18   50 1
    34   18   51 1
    35   19   20 1
    36   19   52 1
    37   19   53 1
    38   20   21 am
    39   21   22 2
    40   21   23 1
    41   23   24 1
    42   23   54 1
    43   23   55 1
    44   24   25 1
    45   24   28 am
    46   25   26 1
    47   25   56 1
    48   25   57 1
    49   26   27 2
    50   26   58 1
    51   27   59 1
    52   27   60 1
    53   28   29 2
    54   28   30 1
    55   30   35 ar
    56   30   31 ar
    57   31   32 ar
    58   31   61 1
    59   32   33 ar
    60   32   62 1
    61   33   38 1
    62   33   34 ar
    63   34   35 ar
    64   34   36 1
    65   35   63 1
    66   36   37 1
    67   37   38 1
    68   37   64 1
    69   37   65 1
@<TRIPOS>MOLECULE
ZINC39770784
   66    69     0     0     0
SMALL
USER_CHARGES

@<TRIPOS>ATOM
      1 C1         -0.5732    1.9131    2.1454 C.3       1 <0>        -0.1523
      2 C2         -0.4661    0.4844    1.6087 C.3       1 <0>        -0.1180
      3 C3          0.3779   -0.3585    2.5669 C.3       1 <0>        -0.1321
      4 C4          0.4850   -1.7872    2.0302 C.3       1 <0>         0.0871
      5 N1          1.2931   -2.5943    2.9478 N.am      1 <0>        -0.4904
      6 C5          2.6218   -2.7439    2.7110 C.2       1 <0>         0.4977
      7 C6          3.4185   -3.5129    3.5753 C.2       1 <0>        -0.2102
      8 C7          2.8297   -4.1293    4.6923 C.2       1 <0>         0.1272
      9 C8          1.4658   -3.9602    4.9132 C.2       1 <0>        -0.1725
     10 C9          0.7068   -3.1696    4.0130 C.2       1 <0>         0.5487
     11 O1         -0.4865   -3.0139    4.2037 O.2       1 <0>        -0.5184
     12 C10         0.8353   -4.5755    6.0421 C.1       1 <0>         0.2792
     13 N2          0.3351   -5.0637    6.9377 N.1       1 <0>        -0.4126
     14 C11         3.6611   -4.9602    5.6354 C.3       1 <0>        -0.1383
     15 C12         4.8503   -3.6712    3.3141 C.2       1 <0>         0.1356
     16 C13         5.7616   -3.1414    4.1748 C.2       1 <0>        -0.2423
     17 C14         5.5552   -2.3146    5.3209 C.2       1 <0>         0.5355
     18 O2          4.4342   -1.9798    5.6592 O.2       1 <0>        -0.4386
     19 N3          6.6174   -1.9242    6.0037 N.am      1 <0>        -0.5231
     20 C15         7.8612   -2.2960    5.6280 C.2       1 <0>         0.2773
     21 S1          9.3620   -1.9107    6.3562 S.2       1 <0>        -0.3095
     22 S2          7.5423   -3.2972    4.1833 S.3       1 <0>         0.0712
     23 C16         6.4439   -1.0754    7.1851 C.3       1 <0>         0.1733
     24 C17         6.2846   -1.9423    8.4075 C.2       1 <0>        -0.0608
     25 C18         7.2818   -2.3778    9.1983 C.2       1 <0>        -0.1617
     26 C19         6.6859   -3.1541   10.2187 C.2       1 <0>        -0.2189
     27 C20         5.3603   -3.1466    9.9904 C.2       1 <0>        -0.0208
     28 O3          5.1225   -2.4062    8.8954 O.3       1 <0>        -0.1659
     29 N4          3.1874   -2.1428    1.6247 N.pl3     1 <0>        -0.6773
     30 C21         3.1660   -2.7907    0.3037 C.3       1 <0>         0.1034
     31 C22         4.5915   -2.7862   -0.2602 C.3       1 <0>         0.0776
     32 H1          5.2217   -3.4443    0.3380 H         1 <0>         0.0628
     33 O4          5.1116   -1.4553   -0.2141 O.3       1 <0>        -0.3660
     34 C23         5.2292   -0.9182    1.1055 C.3       1 <0>         0.0772
     35 H2          5.8618   -1.5695    1.7086 H         1 <0>         0.0629
     36 C24         3.8315   -0.8246    1.7382 C.3       1 <0>         0.1089
     37 C25         5.8523    0.4774    1.0356 C.3       1 <0>        -0.1469
     38 C26         4.5695   -3.2776   -1.7089 C.3       1 <0>        -0.1472
     39 H3          0.4238    2.3459    2.2281 H         1 <0>         0.0537
     40 H4         -1.1744    2.5136    1.4627 H         1 <0>         0.0584
     41 H5         -1.0452    1.8978    3.1277 H         1 <0>         0.0558
     42 H6         -1.4630    0.0516    1.5260 H         1 <0>         0.0674
     43 H7          0.0060    0.4997    0.6263 H         1 <0>         0.0641
     44 H8          1.3749    0.0743    2.6496 H         1 <0>         0.0656
     45 H9         -0.0942   -0.3738    3.5493 H         1 <0>         0.0750
     46 H10        -0.5120   -2.2200    1.9475 H         1 <0>         0.1043
     47 H11         0.9571   -1.7719    1.0479 H         1 <0>         0.0991
     48 H12         4.1052   -4.3147    6.3932 H         1 <0>         0.0915
     49 H13         3.0281   -5.7048    6.1180 H         1 <0>         0.0839
     50 H14         4.4514   -5.4620    5.0771 H         1 <0>         0.0841
     51 H15         5.1833   -4.2084    2.4384 H         1 <0>         0.1587
     52 H16         7.3184   -0.4359    7.3046 H         1 <0>         0.1405
     53 H17         5.5554   -0.4564    7.0604 H         1 <0>         0.1210
     54 H18         8.3354   -2.1741    9.0768 H         1 <0>         0.1595
     55 H19         7.1970   -3.6571   11.0263 H         1 <0>         0.1532
     56 H20         4.6135   -3.6475   10.5885 H         1 <0>         0.2056
     57 H21         2.8142   -3.8175    0.4041 H         1 <0>         0.0902
     58 H22         2.5049   -2.2394   -0.3650 H         1 <0>         0.0768
     59 H23         3.2363   -0.0786    1.2115 H         1 <0>         0.0777
     60 H24         3.9206   -0.5487    2.7889 H         1 <0>         0.0842
     61 H25         5.2183    1.1286    0.4338 H         1 <0>         0.0685
     62 H26         5.9417    0.8863    2.0420 H         1 <0>         0.0716
     63 H27         6.8408    0.4116    0.5810 H         1 <0>         0.0728
     64 H28         3.9406   -2.6180   -2.3068 H         1 <0>         0.0679
     65 H29         5.5833   -3.2741   -2.1092 H         1 <0>         0.0716
     66 H30         4.1690   -4.2907   -1.7429 H         1 <0>         0.0756
@<TRIPOS>BOND
     1    1    2 1
     2    1   39 1
     3    1   40 1
     4    1   41 1
     5    2    3 1
     6    2   42 1
     7    2   43 1
     8    3    4 1
     9    3   44 1
    10    3   45 1
    11    4    5 1
    12    4   46 1
    13    4   47 1
    14    5   10 am
    15    5    6 1
    16    6    7 2
    17    6   29 1
    18    7    8 1
    19    7   15 1
    20    8    9 2
    21    8   14 1
    22    9   10 1
    23    9   12 1
    24   10   11 2
    25   12   13 3
    26   14   48 1
    27   14   49 1
    28   14   50 1
    29   15   16 2
    30   15   51 1
    31   16   22 1
    32   16   17 1
    33   17   18 2
    34   17   19 am
    35   19   20 1
    36   19   23 1
    37   20   21 2
    38   20   22 1
    39   23   24 1
    40   23   52 1
    41   23   53 1
    42   24   28 1
    43   24   25 2
    44   25   26 1
    45   25   54 1
    46   26   27 2
    47   26   55 1
    48   27   28 1
    49   27   56 1
    50   29   36 1
    51   29   30 1
    52   30   31 1
    53   30   57 1
    54   30   58 1
    55   31   32 1
    56   31   33 1
    57   31   38 1
    58   33   34 1
    59   34   35 1
    60   34   36 1
    61   34   37 1
    62   36   59 1
    63   36   60 1
    64   37   61 1
    65   37   62 1
    66   37   63 1
    67   38   64 1
    68   38   65 1
    69   38   66 1
@<TRIPOS>MOLECULE
ZINC64566853
   67    71     0     0     0
SMALL
USER_CHARGES

@<TRIPOS>ATOM
      1 C1          7.9195    0.3154    0.5857 C.3       1 <0>        -0.1097
      2 C2          6.4477    0.2894    0.2630 C.2       1 <0>         0.1635
      3 C3          5.8872    0.3651   -1.0163 C.2       1 <0>        -0.8220
      4 C4          4.5416    0.3094   -0.8852 C.2       1 <0>         0.2159
      5 N1          4.2605    0.2022    0.4304 N.pl3     1 <0>        -0.3598
      6 N2          5.4738    0.1865    1.1305 N.2       1 <0>        -0.2926
      7 C5          2.9231    0.1126    1.0215 C.3       1 <0>         0.0897
      8 C6          3.5367    0.3586   -2.0072 C.3       1 <0>        -0.1414
      9 S1          6.7762    0.5087   -2.5308 S.o2      1 <0>         2.7210
     10 O1          5.8564    0.9990   -3.4967 O.2       1 <0>        -0.9551
     11 O2          7.9912    1.1798   -2.2264 O.2       1 <0>        -0.9524
     12 N3          7.1876   -1.0239   -3.0042 N.pl3     1 <0>        -0.9955
     13 C7          8.4254   -1.6543   -2.5220 C.3       1 <0>         0.1257
     14 C8          8.0679   -2.8725   -1.6613 C.3       1 <0>        -0.0783
     15 C9          7.0011   -3.6705   -2.3676 C.2       1 <0>         0.1089
     16 C10         6.2190   -3.1921   -3.3688 C.2       1 <0>        -0.2382
     17 C11         5.3534   -4.2075   -3.7654 C.2       1 <0>         0.0720
     18 N4          5.6045   -5.2644   -3.0318 N.2       1 <0>        -0.2821
     19 N5          6.6432   -4.9467   -2.1439 N.pl3     1 <0>        -0.3571
     20 C12         7.2333   -5.8464   -1.1497 C.3       1 <0>         0.0979
     21 C13         4.3102   -4.1090   -4.8485 C.3       1 <0>         0.1377
     22 N6          4.8359   -3.3156   -5.9622 N.am      1 <0>        -0.5414
     23 C14         6.1556   -3.4967   -6.3879 C.ar      1 <0>         0.1526
     24 C15         6.9068   -4.5558   -5.8950 C.ar      1 <0>        -0.1464
     25 C16         8.2099   -4.7318   -6.3175 C.ar      1 <0>        -0.0997
     26 C17         8.7670   -3.8546   -7.2299 C.ar      1 <0>        -0.1398
     27 C18         8.0218   -2.7990   -7.7226 C.ar      1 <0>        -0.1001
     28 C19         6.7162   -2.6210   -7.3089 C.ar      1 <0>        -0.1576
     29 C20         4.0477   -2.4113   -6.5765 C.2       1 <0>         0.5632
     30 O3          4.4497   -1.8249   -7.5626 O.2       1 <0>        -0.4963
     31 C21         2.6945   -2.1323   -6.0511 C.ar      1 <0>        -0.1301
     32 C22         2.4497   -2.1911   -4.6781 C.ar      1 <0>        -0.1114
     33 C23         1.1845   -1.9297   -4.1944 C.ar      1 <0>        -0.1221
     34 C24         0.1593   -1.6103   -5.0670 C.ar      1 <0>        -0.0908
     35 C25         0.3951   -1.5504   -6.4290 C.ar      1 <0>        -0.1190
     36 C26         1.6572   -1.8035   -6.9254 C.ar      1 <0>        -0.0568
     37 C27         6.3189   -1.7917   -3.9146 C.3       1 <0>         0.2036
     38 H1          8.3101   -0.7022    0.5828 H         1 <0>         0.0834
     39 H2          8.4452    0.9085   -0.1626 H         1 <0>         0.1097
     40 H3          8.0678    0.7586    1.5704 H         1 <0>         0.0848
     41 H4          2.6264   -0.9339    1.0921 H         1 <0>         0.0819
     42 H5          2.9358    0.5547    2.0177 H         1 <0>         0.0963
     43 H6          2.2119    0.6503    0.3944 H         1 <0>         0.0935
     44 H7          3.2785   -0.6565   -2.3086 H         1 <0>         0.0909
     45 H8          2.6393    0.8765   -1.6688 H         1 <0>         0.0860
     46 H9          3.9656    0.8916   -2.8558 H         1 <0>         0.1294
     47 H10         9.0270   -1.9735   -3.3730 H         1 <0>         0.0882
     48 H11         8.9895   -0.9387   -1.9239 H         1 <0>         0.1059
     49 H12         8.9535   -3.4919   -1.5192 H         1 <0>         0.0953
     50 H13         7.6939   -2.5388   -0.6934 H         1 <0>         0.0898
     51 H14         6.6905   -5.7546   -0.2090 H         1 <0>         0.0765
     52 H15         7.1700   -6.8743   -1.5069 H         1 <0>         0.0930
     53 H16         8.2786   -5.5798   -0.9935 H         1 <0>         0.0896
     54 H17         4.0578   -5.1087   -5.2019 H         1 <0>         0.0952
     55 H18         3.4168   -3.6282   -4.4498 H         1 <0>         0.1459
     56 H19         6.4726   -5.2409   -5.1819 H         1 <0>         0.1284
     57 H20         8.7945   -5.5552   -5.9346 H         1 <0>         0.1178
     58 H21         9.7864   -3.9940   -7.5581 H         1 <0>         0.1190
     59 H22         8.4599   -2.1155   -8.4347 H         1 <0>         0.1246
     60 H23         6.1331   -1.7993   -7.6977 H         1 <0>         0.1733
     61 H24         3.2490   -2.4409   -3.9961 H         1 <0>         0.1429
     62 H25         0.9937   -1.9748   -3.1324 H         1 <0>         0.1298
     63 H26        -0.8296   -1.4073   -4.6832 H         1 <0>         0.1298
     64 H27        -0.4096   -1.3009   -7.1047 H         1 <0>         0.1334
     65 H28         1.8411   -1.7520   -7.9884 H         1 <0>         0.1367
     66 H29         5.3287   -1.3377   -3.9535 H         1 <0>         0.0843
     67 H30         6.7565   -1.8159   -4.9126 H         1 <0>         0.0882
@<TRIPOS>BOND
     1    1    2 1
     2    1   38 1
     3    1   39 1
     4    1   40 1
     5    2    6 2
     6    2    3 1
     7    3    4 2
     8    3    9 1
     9    4    5 1
    10    4    8 1
    11    5    6 1
    12    5    7 1
    13    7   41 1
    14    7   42 1
    15    7   43 1
    16    8   44 1
    17    8   45 1
    18    8   46 1
    19    9   10 2
    20    9   11 2
    21    9   12 1
    22   12   37 1
    23   12   13 1
    24   13   14 1
    25   13   47 1
    26   13   48 1
    27   14   15 1
    28   14   49 1
    29   14   50 1
    30   15   19 1
    31   15   16 2
    32   16   17 1
    33   16   37 1
    34   17   18 2
    35   17   21 1
    36   18   19 1
    37   19   20 1
    38   20   51 1
    39   20   52 1
    40   20   53 1
    41   21   22 1
    42   21   54 1
    43   21   55 1
    44   22   23 1
    45   22   29 am
    46   23   28 ar
    47   23   24 ar
    48   24   25 ar
    49   24   56 1
    50   25   26 ar
    51   25   57 1
    52   26   27 ar
    53   26   58 1
    54   27   28 ar
    55   27   59 1
    56   28   60 1
    57   29   30 2
    58   29   31 1
    59   31   36 ar
    60   31   32 ar
    61   32   33 ar
    62   32   61 1
    63   33   34 ar
    64   33   62 1
    65   34   35 ar
    66   34   63 1
    67   35   36 ar
    68   35   64 1
    69   36   65 1
    70   37   66 1
    71   37   67 1
@<TRIPOS>MOLECULE
ZINC03231021
   60    65     0     0     0
SMALL
USER_CHARGES
(2R)-3-[(4-methoxyphenyl)methyl]-2-[3-(2-oxochromen-3-yl)-1-phenyl-pyrazol-4-yl]thiazolidin-4-one
@<TRIPOS>ATOM
      1 C1          0.5528   -3.4927    7.1918 C.3       1 <0>         0.0264
      2 O1          0.9343   -4.7348    6.5969 O.3       1 <0>        -0.3162
      3 C2          1.6841   -4.6723    5.4652 C.ar      1 <0>         0.1369
      4 C3          2.0897   -5.8398    4.8351 C.ar      1 <0>        -0.1528
      5 C4          2.8522   -5.7736    3.6850 C.ar      1 <0>        -0.0523
      6 C5          3.2115   -4.5451    3.1621 C.ar      1 <0>        -0.1509
      7 C6          2.8132   -3.3801    3.7914 C.ar      1 <0>        -0.0645
      8 C7          2.0455   -3.4408    4.9383 C.ar      1 <0>        -0.2111
      9 C8          4.0437   -4.4758    1.9077 C.3       1 <0>         0.1525
     10 N1          3.1622   -4.4414    0.7381 N.am      1 <0>        -0.6030
     11 C9          2.6901   -3.1527    0.1973 C.3       1 <0>         0.2715
     12 H1          1.8928   -2.7377    0.8140 H         1 <0>         0.1166
     13 S1          2.0519   -3.6660   -1.4554 S.3       1 <0>        -0.2431
     14 C10         1.8685   -5.4589   -1.0593 C.3       1 <0>        -0.0955
     15 C11         2.7790   -5.5690    0.1534 C.2       1 <0>         0.5185
     16 O2          3.1420   -6.6483    0.5708 O.2       1 <0>        -0.5097
     17 C12         3.8279   -2.1744    0.0584 C.2       1 <0>        -0.2227
     18 C13         5.1433   -2.4802    0.0569 C.2       1 <0>         0.0936
     19 N2          5.8407   -1.3224   -0.0834 N.pl3     1 <0>        -0.3075
     20 N3          4.9204   -0.2705   -0.1773 N.2       1 <0>        -0.2370
     21 C14         3.7075   -0.7783   -0.0962 C.2       1 <0>         0.1566
     22 C15         2.4388   -0.0149   -0.1514 C.2       1 <0>        -0.1326
     23 C16         1.4551   -0.2339    0.7750 C.2       1 <0>         0.0151
     24 C17         0.2213    0.5470    0.6736 C.ar      1 <0>        -0.1528
     25 C18        -0.8165    0.3609    1.5958 C.ar      1 <0>        -0.0514
     26 C19        -1.9615    1.0977    1.4873 C.ar      1 <0>        -0.1400
     27 C20        -2.1044    2.0296    0.4691 C.ar      1 <0>        -0.0582
     28 C21        -1.0966    2.2251   -0.4515 C.ar      1 <0>        -0.1331
     29 C22         0.0800    1.4906   -0.3587 C.ar      1 <0>         0.1493
     30 O3          1.0711    1.6806   -1.2555 O.3       1 <0>        -0.2623
     31 C23         2.2176    0.9860   -1.1991 C.2       1 <0>         0.5189
     32 O4          3.0848    1.1892   -2.0286 O.2       1 <0>        -0.4311
     33 C24         7.2357   -1.2018   -0.1262 C.ar      1 <0>         0.1511
     34 C25         8.0355   -2.3316   -0.0149 C.ar      1 <0>        -0.1363
     35 C26         9.4104   -2.2099   -0.0627 C.ar      1 <0>        -0.0918
     36 C27         9.9910   -0.9635   -0.2097 C.ar      1 <0>        -0.1220
     37 C28         9.1974    0.1640   -0.3155 C.ar      1 <0>        -0.0943
     38 C29         7.8218    0.0484   -0.2741 C.ar      1 <0>        -0.1124
     39 H2          1.4461   -2.9302    7.4630 H         1 <0>         0.0566
     40 H3         -0.0381   -2.9156    6.4805 H         1 <0>         0.0561
     41 H4         -0.0407   -3.6851    8.0856 H         1 <0>         0.1020
     42 H5          1.8099   -6.7996    5.2435 H         1 <0>         0.1327
     43 H6          3.1682   -6.6822    3.1941 H         1 <0>         0.1360
     44 H7          3.0992   -2.4217    3.3837 H         1 <0>         0.1215
     45 H8          1.7313   -2.5305    5.4272 H         1 <0>         0.1296
     46 H9          4.6889   -5.3525    1.8508 H         1 <0>         0.1017
     47 H10         4.6564   -3.5745    1.9275 H         1 <0>         0.0933
     48 H11         2.2261   -6.0824   -1.8787 H         1 <0>         0.1418
     49 H12         0.8379   -5.7032   -0.8021 H         1 <0>         0.1327
     50 H13         5.5662   -3.4691    0.1551 H         1 <0>         0.1844
     51 H14         1.5857   -0.9644    1.5598 H         1 <0>         0.1526
     52 H15        -0.7115   -0.3629    2.3905 H         1 <0>         0.1391
     53 H16        -2.7613    0.9537    2.1986 H         1 <0>         0.1372
     54 H17        -3.0153    2.6051    0.3950 H         1 <0>         0.1423
     55 H18        -1.2201    2.9504   -1.2422 H         1 <0>         0.1463
     56 H19         7.5827   -3.3047    0.1047 H         1 <0>         0.1296
     57 H20        10.0329   -3.0887    0.0190 H         1 <0>         0.1358
     58 H21        11.0665   -0.8705   -0.2423 H         1 <0>         0.1316
     59 H22         9.6539    1.1360   -0.4309 H         1 <0>         0.1349
     60 H23         7.2026    0.9293   -0.3572 H         1 <0>         0.1397
@<TRIPOS>BOND
     1    1    2 1
     2    1   39 1
     3    1   40 1
     4    1   41 1
     5    2    3 1
     6    3    8 ar
     7    3    4 ar
     8    4    5 ar
     9    4   42 1
    10    5    6 ar
    11    5   43 1
    12    6    7 ar
    13    6    9 1
    14    7    8 ar
    15    7   44 1
    16    8   45 1
    17    9   10 1
    18    9   46 1
    19    9   47 1
    20   10   15 am
    21   10   11 1
    22   11   12 1
    23   11   13 1
    24   11   17 1
    25   13   14 1
    26   14   15 1
    27   14   48 1
    28   14   49 1
    29   15   16 2
    30   17   21 1
    31   17   18 2
    32   18   19 1
    33   18   50 1
    34   19   20 1
    35   19   33 1
    36   20   21 2
    37   21   22 1
    38   22   31 1
    39   22   23 2
    40   23   24 1
    41   23   51 1
    42   24   29 ar
    43   24   25 ar
    44   25   26 ar
    45   25   52 1
    46   26   27 ar
    47   26   53 1
    48   27   28 ar
    49   27   54 1
    50   28   29 ar
    51   28   55 1
    52   29   30 1
    53   30   31 1
    54   31   32 2
    55   33   38 ar
    56   33   34 ar
    57   34   35 ar
    58   34   56 1
    59   35   36 ar
    60   35   57 1
    61   36   37 ar
    62   36   58 1
    63   37   38 ar
    64   37   59 1
    65   38   60 1
@<TRIPOS>MOLECULE
ZINC03656153
   58    63     0     0     0
SMALL
USER_CHARGES
(1S)-2-(1,3-benzodioxol-5-ylmethyl)-7-fluoro-1-(4-propoxyphenyl)-1H-chromeno[2,3-c]pyrrole-3,9-dione
@<TRIPOS>ATOM
      1 C1          1.6576    4.8198    8.3009 C.3       1 <0>        -0.1500
      2 C2          2.2594    5.3232    6.9874 C.3       1 <0>        -0.1235
      3 C3          1.8673    4.3768    5.8510 C.3       1 <0>         0.0597
      4 O1          2.4293    4.8470    4.6242 O.3       1 <0>        -0.3110
      5 C4          2.1744    4.1148    3.5081 C.ar      1 <0>         0.1537
      6 C5          2.6889    4.5135    2.2829 C.ar      1 <0>        -0.1550
      7 C6          2.4288    3.7671    1.1499 C.ar      1 <0>        -0.0470
      8 C7          1.6563    2.6236    1.2362 C.ar      1 <0>        -0.1482
      9 C8          1.1377    2.2272    2.4551 C.ar      1 <0>        -0.0429
     10 C9          1.3997    2.9670    3.5920 C.ar      1 <0>        -0.2022
     11 C10         1.3741    1.8114   -0.0013 C.3       1 <0>         0.2368
     12 H1          1.5611    2.4085   -0.8938 H         1 <0>         0.1235
     13 C11         2.2321    0.5732   -0.0162 C.2       1 <0>        -0.2469
     14 C12         3.6835    0.3712   -0.0312 C.2       1 <0>         0.4499
     15 O2          4.4600    1.3101   -0.0331 O.2       1 <0>        -0.4303
     16 C13         4.1579   -1.0266   -0.0433 C.ar      1 <0>        -0.1934
     17 C14         5.5178   -1.3323   -0.0584 C.ar      1 <0>        -0.0615
     18 C15         5.9173   -2.6525   -0.0699 C.ar      1 <0>         0.0760
     19 C16         4.9689   -3.6690   -0.0657 C.ar      1 <0>        -0.0830
     20 C17         3.6229   -3.3773   -0.0508 C.ar      1 <0>        -0.1061
     21 C18         3.1968   -2.0521   -0.0396 C.ar      1 <0>         0.1491
     22 O3          1.8841   -1.7563   -0.0250 O.3       1 <0>        -0.1961
     23 C19         1.4017   -0.4982   -0.0140 C.2       1 <0>         0.0977
     24 C20         0.0021   -0.0041    0.0020 C.2       1 <0>         0.5768
     25 O4         -0.9850   -0.7124    0.0070 O.2       1 <0>        -0.4827
     26 N1         -0.0162    1.3400    0.0094 N.am      1 <0>        -0.5855
     27 C21        -1.2126    2.1854    0.0199 C.3       1 <0>         0.1877
     28 C22        -1.6154    2.4681    1.4443 C.ar      1 <0>        -0.1170
     29 C23        -2.4957    1.6221    2.0930 C.ar      1 <0>        -0.0822
     30 C24        -2.8632    1.8736    3.4017 C.ar      1 <0>        -0.1065
     31 C25        -2.3599    2.9826    4.0623 C.ar      1 <0>         0.0419
     32 C26        -1.4777    3.8380    3.4069 C.ar      1 <0>         0.0327
     33 C27        -1.1084    3.5758    2.0976 C.ar      1 <0>        -0.0638
     34 O5         -1.1295    4.8439    4.2614 O.3       1 <0>        -0.3016
     35 C28        -2.1214    4.8223    5.3050 C.3       1 <0>         0.2102
     36 O6         -2.5645    3.4525    5.3274 O.3       1 <0>        -0.3077
     37 F1          7.2331   -2.9584   -0.0846 F         1 <0>        -0.1272
     38 H2          0.5716    4.7868    8.2139 H         1 <0>         0.0558
     39 H3          2.0355    3.8198    8.5140 H         1 <0>         0.0576
     40 H4          1.9370    5.4940    9.1105 H         1 <0>         0.0663
     41 H5          3.3454    5.3561    7.0744 H         1 <0>         0.0737
     42 H6          1.8815    6.3231    6.7743 H         1 <0>         0.0741
     43 H7          0.7812    4.3439    5.7640 H         1 <0>         0.0649
     44 H8          2.2452    3.3769    6.0641 H         1 <0>         0.0580
     45 H9          3.2927    5.4064    2.2151 H         1 <0>         0.1333
     46 H10         2.8288    4.0773    0.1959 H         1 <0>         0.1338
     47 H11         0.5306    1.3363    2.5191 H         1 <0>         0.1155
     48 H12         0.9980    2.6545    4.5446 H         1 <0>         0.1224
     49 H13         6.2531   -0.5413   -0.0616 H         1 <0>         0.1586
     50 H14         5.2914   -4.6997   -0.0747 H         1 <0>         0.1584
     51 H15         2.8975   -4.1773   -0.0474 H         1 <0>         0.1597
     52 H16        -0.9983    3.1245   -0.4903 H         1 <0>         0.1057
     53 H17        -2.0255    1.6709   -0.4923 H         1 <0>         0.1091
     54 H18        -2.8934    0.7602    1.5777 H         1 <0>         0.1428
     55 H19        -3.5476    1.2086    3.9074 H         1 <0>         0.1367
     56 H20        -0.4244    4.2375    1.5869 H         1 <0>         0.1345
     57 H21        -2.9488    5.4885    5.0608 H         1 <0>         0.0856
     58 H22        -1.6769    5.0968    6.2616 H         1 <0>         0.1294
@<TRIPOS>BOND
     1    1    2 1
     2    1   38 1
     3    1   39 1
     4    1   40 1
     5    2    3 1
     6    2   41 1
     7    2   42 1
     8    3    4 1
     9    3   43 1
    10    3   44 1
    11    4    5 1
    12    5   10 ar
    13    5    6 ar
    14    6    7 ar
    15    6   45 1
    16    7    8 ar
    17    7   46 1
    18    8    9 ar
    19    8   11 1
    20    9   10 ar
    21    9   47 1
    22   10   48 1
    23   11   12 1
    24   11   26 1
    25   11   13 1
    26   13   23 2
    27   13   14 1
    28   14   15 2
    29   14   16 1
    30   16   21 ar
    31   16   17 ar
    32   17   18 ar
    33   17   49 1
    34   18   19 ar
    35   18   37 1
    36   19   20 ar
    37   19   50 1
    38   20   21 ar
    39   20   51 1
    40   21   22 1
    41   22   23 1
    42   23   24 1
    43   24   25 2
    44   24   26 am
    45   26   27 1
    46   27   28 1
    47   27   52 1
    48   27   53 1
    49   28   33 ar
    50   28   29 ar
    51   29   30 ar
    52   29   54 1
    53   30   31 ar
    54   30   55 1
    55   31   36 1
    56   31   32 ar
    57   32   33 ar
    58   32   34 1
    59   33   56 1
    60   34   35 1
    61   35   36 1
    62   35   57 1
    63   35   58 1
@<TRIPOS>MOLECULE
ZINC33474939
   65    67     0     0     0
SMALL
USER_CHARGES
6-[(2S,6S)-2,6-dimethylmorpholin-4-yl]-1-ethyl-5-[(Z)-(3-isopentyl-4-oxo-2-thioxo-thiazolidin-5-ylidene)methyl]-4-methyl-2-oxo-pyridine-3-carbonitrile
@<TRIPOS>ATOM
      1 C1          1.6304    6.0819    2.2978 C.3       1 <0>        -0.1664
      2 C2          1.8196    6.1878    0.7833 C.3       1 <0>         0.0830
      3 N1          2.9487    5.3496    0.3724 N.am      1 <0>        -0.4660
      4 C3          2.7279    4.0544    0.0296 C.2       1 <0>         0.4368
      5 C4          3.7941    3.2282   -0.3623 C.2       1 <0>        -0.2585
      6 C5          5.0957    3.7555   -0.4086 C.2       1 <0>         0.1137
      7 C6          5.2958    5.0861   -0.0520 C.2       1 <0>        -0.1678
      8 C7          4.1860    5.8765    0.3417 C.2       1 <0>         0.5469
      9 O1          4.3546    7.0419    0.6549 O.2       1 <0>        -0.5097
     10 C8          6.6109    5.6519   -0.0820 C.1       1 <0>         0.2755
     11 N2          7.6542    6.1008   -0.1058 N.1       1 <0>        -0.4045
     12 C9          6.2571    2.8927   -0.8303 C.3       1 <0>        -0.1527
     13 C10         3.5505    1.8309   -0.7249 C.2       1 <0>         0.1120
     14 C11         4.0346    0.8300    0.0598 C.2       1 <0>        -0.2368
     15 C12         3.8694   -0.5831   -0.0650 C.2       1 <0>         0.5426
     16 O2          3.2159   -1.0602   -0.9753 O.2       1 <0>        -0.4505
     17 N3          4.4473   -1.3575    0.8368 N.am      1 <0>        -0.5206
     18 C13         5.1730   -0.8276    1.8462 C.2       1 <0>         0.2724
     19 S1          6.0005   -1.6329    3.1103 S.2       1 <0>        -0.3070
     20 S2          5.0569    0.9255    1.5231 S.3       1 <0>         0.0651
     21 C14         4.2994   -2.8118    0.7404 C.3       1 <0>         0.0791
     22 C15         5.4345   -3.3846   -0.1107 C.3       1 <0>        -0.1279
     23 C16         5.2800   -4.9034   -0.2114 C.3       1 <0>        -0.0893
     24 C17         6.3402   -5.4619   -1.1627 C.3       1 <0>        -0.1491
     25 C18         5.4586   -5.5272    1.1742 C.3       1 <0>        -0.1538
     26 N4          1.4610    3.5498    0.0717 N.pl3     1 <0>        -0.5163
     27 C19         1.3808    2.4029    0.9879 C.3       1 <0>         0.0162
     28 C20        -0.0662    1.9067    1.0504 C.3       1 <0>         0.0879
     29 H1         -0.7450    2.6936    1.4109 H         1 <0>         0.0796
     30 O3         -0.5094    1.5777   -0.2690 O.3       1 <0>        -0.3734
     31 C21        -0.4453    2.6720   -1.1875 C.3       1 <0>         0.0932
     32 H2         -0.7900    2.2767   -2.1544 H         1 <0>         0.1192
     33 C22         0.9979    3.1760   -1.2726 C.3       1 <0>         0.0178
     34 C23        -1.3533    3.8026   -0.6993 C.3       1 <0>        -0.1821
     35 C24        -0.1422    0.6639    1.9396 C.3       1 <0>        -0.1479
     36 H3          0.7826    6.7113    2.6063 H         1 <0>         0.0826
     37 H4          2.5443    6.4229    2.8062 H         1 <0>         0.0653
     38 H5          1.4282    5.0354    2.5698 H         1 <0>         0.0625
     39 H6          0.9057    5.8468    0.2749 H         1 <0>         0.1102
     40 H7          2.0217    7.2343    0.5113 H         1 <0>         0.1071
     41 H8          7.1835    3.4851   -0.8013 H         1 <0>         0.0853
     42 H9          6.0886    2.5255   -1.8534 H         1 <0>         0.0978
     43 H10         6.3469    2.0378   -0.1440 H         1 <0>         0.0985
     44 H11         2.9762    1.5900   -1.6316 H         1 <0>         0.1753
     45 H12         4.3384   -3.2519    1.7478 H         1 <0>         0.1168
     46 H13         3.3332   -3.0519    0.2726 H         1 <0>         0.1068
     47 H14         5.3955   -2.9445   -1.1181 H         1 <0>         0.0691
     48 H15         6.4007   -3.1445    0.3571 H         1 <0>         0.0755
     49 H16         4.2782   -5.1453   -0.5961 H         1 <0>         0.0741
     50 H17         6.2291   -6.5539   -1.2351 H         1 <0>         0.0597
     51 H18         7.3419   -5.2199   -0.7780 H         1 <0>         0.0568
     52 H19         6.2117   -5.0134   -2.1589 H         1 <0>         0.0547
     53 H20         5.3475   -6.6192    1.1018 H         1 <0>         0.0580
     54 H21         4.6963   -5.1256    1.8581 H         1 <0>         0.0570
     55 H22         6.4603   -5.2852    1.5589 H         1 <0>         0.0608
     56 H23         2.0319    1.5953    0.6222 H         1 <0>         0.0722
     57 H24         1.7082    2.7118    1.9916 H         1 <0>         0.0995
     58 H25         1.0433    4.0542   -1.9334 H         1 <0>         0.1032
     59 H26         1.6429    2.3809   -1.6747 H         1 <0>         0.0698
     60 H27        -1.3036    4.6440   -1.4062 H         1 <0>         0.0692
     61 H28        -1.0197    4.1378    0.2938 H         1 <0>         0.0721
     62 H29        -2.3894    3.4388   -0.6346 H         1 <0>         0.0668
     63 H30        -1.1821    0.3079    1.9841 H         1 <0>         0.0749
     64 H31         0.2025    0.9166    2.9532 H         1 <0>         0.0761
     65 H32         0.4983   -0.1263    1.5208 H         1 <0>         0.0617
@<TRIPOS>BOND
     1    1    2 1
     2    1   36 1
     3    1   37 1
     4    1   38 1
     5    2    3 1
     6    2   39 1
     7    2   40 1
     8    3    8 am
     9    3    4 1
    10    4    5 2
    11    4   26 1
    12    5    6 1
    13    5   13 1
    14    6    7 2
    15    6   12 1
    16    7    8 1
    17    7   10 1
    18    8    9 2
    19   10   11 3
    20   12   41 1
    21   12   42 1
    22   12   43 1
    23   13   14 2
    24   13   44 1
    25   14   20 1
    26   14   15 1
    27   15   16 2
    28   15   17 am
    29   17   18 1
    30   17   21 1
    31   18   19 2
    32   18   20 1
    33   21   22 1
    34   21   45 1
    35   21   46 1
    36   22   23 1
    37   22   47 1
    38   22   48 1
    39   23   24 1
    40   23   25 1
    41   23   49 1
    42   24   50 1
    43   24   51 1
    44   24   52 1
    45   25   53 1
    46   25   54 1
    47   25   55 1
    48   26   33 1
    49   26   27 1
    50   27   28 1
    51   27   56 1
    52   27   57 1
    53   28   29 1
    54   28   30 1
    55   28   35 1
    56   30   31 1
    57   31   32 1
    58   31   33 1
    59   31   34 1
    60   33   58 1
    61   33   59 1
    62   34   60 1
    63   34   61 1
    64   34   62 1
    65   35   63 1
    66   35   64 1
    67   35   65 1
@<TRIPOS>MOLECULE
ZINC39889634
   60    65     0     0     0
SMALL
USER_CHARGES

@<TRIPOS>ATOM
      1 C1         -0.0173    1.4248    0.0099 C.3       1 <0>         0.0313
      2 O1          0.0021   -0.0041    0.0020 O.3       1 <0>        -0.3881
      3 C2          0.6734   -0.5824    1.1231 C.3       1 <0>         0.0666
      4 C3          0.6327   -2.1077    1.0107 C.3       1 <0>        -0.1416
      5 C4          1.3514   -2.7270    2.2110 C.3       1 <0>         0.1441
      6 N1          1.3125   -4.1875    2.1034 N.am      1 <0>        -0.5740
      7 C5          0.3488   -4.9964    2.5943 C.2       1 <0>         0.5769
      8 O2         -0.6342   -4.6197    3.2008 O.2       1 <0>        -0.4693
      9 C6          0.6638   -6.4030    2.2861 C.2       1 <0>         0.1112
     10 C7          1.8431   -6.4371    1.5949 C.2       1 <0>        -0.2433
     11 C8          2.4169   -7.7096    1.1441 C.2       1 <0>         0.4579
     12 O3          3.5407   -7.8085    0.6840 O.2       1 <0>        -0.4305
     13 C9          1.4986   -8.8654    1.3017 C.ar      1 <0>        -0.2085
     14 C10         1.8155  -10.1016    0.7390 C.ar      1 <0>        -0.0309
     15 C11         0.9563  -11.1546    0.8876 C.ar      1 <0>        -0.1395
     16 C12        -0.2274  -10.9956    1.5945 C.ar      1 <0>        -0.0524
     17 C13        -0.5555   -9.7830    2.1580 C.ar      1 <0>        -0.1320
     18 C14         0.3063   -8.6944    2.0240 C.ar      1 <0>         0.1384
     19 O4         -0.0293   -7.5159    2.5962 O.3       1 <0>        -0.1758
     20 C15         2.3100   -5.0324    1.4376 C.3       1 <0>         0.2309
     21 C16         2.4882   -4.6427    0.0052 C.ar      1 <0>        -0.1568
     22 C17         1.6059   -4.6209   -1.0534 C.ar      1 <0>        -0.0344
     23 C18         2.1036   -4.1969   -2.2808 C.ar      1 <0>        -0.1422
     24 C19         3.4218   -3.8163   -2.4289 C.ar      1 <0>        -0.0666
     25 C20         4.3150   -3.8358   -1.3692 C.ar      1 <0>        -0.1379
     26 C21         3.8284   -4.2596   -0.1315 C.ar      1 <0>         0.1711
     27 N2          4.4885   -4.3789    1.0788 N.am      1 <0>        -0.5389
     28 C22         3.6743   -4.8280    2.0574 C.2       1 <0>         0.5413
     29 O5          3.9789   -5.0291    3.2141 O.2       1 <0>        -0.4643
     30 C23         5.9040   -4.0559    1.2750 C.3       1 <0>         0.1531
     31 C24         6.0391   -2.6066    1.6652 C.ar      1 <0>        -0.1304
     32 C25         6.1863   -1.6392    0.6886 C.ar      1 <0>        -0.0684
     33 C26         6.3098   -0.3098    1.0452 C.ar      1 <0>        -0.1549
     34 C27         6.2861    0.0532    2.3811 C.ar      1 <0>         0.1096
     35 C28         6.1385   -0.9166    3.3584 C.ar      1 <0>        -0.1545
     36 C29         6.0099   -2.2448    2.9991 C.ar      1 <0>        -0.0670
     37 F1          6.4072    1.3525    2.7309 F         1 <0>        -0.1364
     38 H1          1.0053    1.8021    0.0021 H         1 <0>         0.0418
     39 H2         -0.5445    1.7859   -0.8732 H         1 <0>         0.0882
     40 H3         -0.5275    1.7763    0.9067 H         1 <0>         0.0427
     41 H4          1.7103   -0.2468    1.1385 H         1 <0>         0.0503
     42 H5          0.1775   -0.2725    2.0430 H         1 <0>         0.0532
     43 H6         -0.4042   -2.4434    0.9953 H         1 <0>         0.0821
     44 H7          1.1285   -2.4176    0.0908 H         1 <0>         0.0845
     45 H8          2.3884   -2.3913    2.2264 H         1 <0>         0.0867
     46 H9          0.8556   -2.4171    3.1309 H         1 <0>         0.1016
     47 H10         2.7358  -10.2264    0.1878 H         1 <0>         0.1458
     48 H11         1.1993  -12.1130    0.4532 H         1 <0>         0.1415
     49 H12        -0.8998  -11.8336    1.7037 H         1 <0>         0.1456
     50 H13        -1.4809   -9.6747    2.7042 H         1 <0>         0.1496
     51 H14         0.5749   -4.9199   -0.9351 H         1 <0>         0.1340
     52 H15         1.4449   -4.1652   -3.1360 H         1 <0>         0.1316
     53 H16         3.7679   -3.4938   -3.3997 H         1 <0>         0.1325
     54 H17         5.3448   -3.5359   -1.4959 H         1 <0>         0.1373
     55 H18         6.3140   -4.6847    2.0653 H         1 <0>         0.1050
     56 H19         6.4493   -4.2351    0.3484 H         1 <0>         0.1038
     57 H20         6.2052   -1.9226   -0.3534 H         1 <0>         0.1339
     58 H21         6.4252    0.4457    0.2821 H         1 <0>         0.1389
     59 H22         6.1202   -0.6346    4.4008 H         1 <0>         0.1387
     60 H23         5.8903   -3.0009    3.7610 H         1 <0>         0.1368
@<TRIPOS>BOND
     1    1    2 1
     2    1   38 1
     3    1   39 1
     4    1   40 1
     5    2    3 1
     6    3    4 1
     7    3   41 1
     8    3   42 1
     9    4    5 1
    10    4   43 1
    11    4   44 1
    12    5    6 1
    13    5   45 1
    14    5   46 1
    15    6   20 1
    16    6    7 am
    17    7    8 2
    18    7    9 1
    19    9   19 1
    20    9   10 2
    21   10   11 1
    22   10   20 1
    23   11   12 2
    24   11   13 1
    25   13   18 ar
    26   13   14 ar
    27   14   15 ar
    28   14   47 1
    29   15   16 ar
    30   15   48 1
    31   16   17 ar
    32   16   49 1
    33   17   18 ar
    34   17   50 1
    35   18   19 1
    36   20   28 1
    37   20   21 1
    38   21   26 ar
    39   21   22 ar
    40   22   23 ar
    41   22   51 1
    42   23   24 ar
    43   23   52 1
    44   24   25 ar
    45   24   53 1
    46   25   26 ar
    47   25   54 1
    48   26   27 1
    49   27   28 am
    50   27   30 1
    51   28   29 2
    52   30   31 1
    53   30   55 1
    54   30   56 1
    55   31   36 ar
    56   31   32 ar
    57   32   33 ar
    58   32   57 1
    59   33   34 ar
    60   33   58 1
    61   34   35 ar
    62   34   37 1
    63   35   36 ar
    64   35   59 1
    65   36   60 1
@<TRIPOS>MOLECULE
ZINC15087361
   53    57     0     0     0
SMALL
USER_CHARGES

@<TRIPOS>ATOM
      1 C1         -0.2280    1.5870    0.1525 C.3       1 <0>        -0.1531
      2 C2         -0.1751    0.0583    0.1178 C.3       1 <0>         0.0612
      3 O1          0.5363   -0.4197    1.2613 O.3       1 <0>        -0.3458
      4 C3          0.6731   -1.7495    1.3818 C.2       1 <0>         0.4499
      5 O2          0.2044   -2.4834    0.5442 O.2       1 <0>        -0.4868
      6 C4          1.4112   -2.3272    2.5619 C.3       1 <0>         0.0996
      7 N1          1.4223   -3.7888    2.4630 N.am      1 <0>        -0.5149
      8 C5          0.4073   -4.5226    3.0247 C.2       1 <0>         0.0922
      9 C6          0.5209   -5.8610    2.8782 C.2       1 <0>        -0.1960
     10 S1          2.0255   -6.0405    1.9569 S.3       1 <0>         0.1029
     11 C7          2.4254   -4.4125    1.8163 C.2       1 <0>         0.4769
     12 O3          3.3916   -3.9169    1.2635 O.2       1 <0>        -0.4490
     13 C8         -0.3814   -6.9561    3.3735 C.3       1 <0>         0.0695
     14 H1          0.2196   -7.7920    3.7316 H         1 <0>         0.1316
     15 C9         -1.2179   -6.4122    4.5043 C.3       1 <0>        -0.1192
     16 H2         -0.5654   -6.0444    5.2962 H         1 <0>         0.1517
     17 C10        -2.0878   -5.2390    3.9606 C.3       1 <0>        -0.1535
     18 H3         -2.5278   -5.4750    2.9917 H         1 <0>         0.1711
     19 S2         -0.9859   -3.8035    3.8826 S.3       1 <0>         0.0377
     20 C11        -3.1316   -5.1730    5.0416 C.2       1 <0>         0.5654
     21 O4         -3.7362   -4.1889    5.4100 O.2       1 <0>        -0.4279
     22 N2         -3.2614   -6.4365    5.5218 N.am      1 <0>        -0.5198
     23 C12        -2.2906   -7.2694    5.0981 C.2       1 <0>         0.5554
     24 O5         -2.2884   -8.4779    5.1935 O.2       1 <0>        -0.4330
     25 C13        -4.3132   -6.8354    6.3600 C.ar      1 <0>         0.1054
     26 C14        -4.3785   -8.1441    6.8182 C.ar      1 <0>        -0.1056
     27 C15        -5.4147   -8.5352    7.6433 C.ar      1 <0>        -0.1310
     28 C16        -6.3882   -7.6226    8.0135 C.ar      1 <0>         0.0970
     29 C17        -6.3248   -6.3167    7.5573 C.ar      1 <0>        -0.1308
     30 C18        -5.2868   -5.9206    6.7367 C.ar      1 <0>        -0.1090
     31 F1         -7.4014   -8.0070    8.8203 F         1 <0>        -0.1340
     32 C19        -1.2769   -7.4197    2.2535 C.ar      1 <0>        -0.1051
     33 C20        -1.7070   -6.5209    1.2953 C.ar      1 <0>        -0.1147
     34 C21        -2.5283   -6.9460    0.2679 C.ar      1 <0>        -0.1142
     35 C22        -2.9192   -8.2701    0.1985 C.ar      1 <0>        -0.1083
     36 C23        -2.4884   -9.1692    1.1561 C.ar      1 <0>        -0.1141
     37 C24        -1.6636   -8.7449    2.1811 C.ar      1 <0>        -0.0925
     38 H4          0.7863    1.9861    0.1424 H         1 <0>         0.0684
     39 H5         -0.7706    1.9517   -0.7198 H         1 <0>         0.0826
     40 H6         -0.7375    1.9125    1.0595 H         1 <0>         0.0689
     41 H7         -1.1893   -0.3407    0.1279 H         1 <0>         0.0711
     42 H8          0.3344   -0.2671   -0.7892 H         1 <0>         0.0698
     43 H9          2.4359   -1.9556    2.5668 H         1 <0>         0.1462
     44 H10         0.9121   -2.0292    3.4839 H         1 <0>         0.1339
     45 H11        -3.6196   -8.8562    6.5293 H         1 <0>         0.1638
     46 H12        -5.4660   -9.5534    7.9996 H         1 <0>         0.1467
     47 H13        -7.0849   -5.6063    7.8471 H         1 <0>         0.1464
     48 H14        -5.2352   -4.9008    6.3848 H         1 <0>         0.1615
     49 H15        -1.4016   -5.4864    1.3496 H         1 <0>         0.1201
     50 H16        -2.8649   -6.2437   -0.4802 H         1 <0>         0.1257
     51 H17        -3.5615   -8.6022   -0.6038 H         1 <0>         0.1256
     52 H18        -2.7941  -10.2036    1.1020 H         1 <0>         0.1276
     53 H19        -1.3239   -9.4480    2.9271 H         1 <0>         0.1326
@<TRIPOS>BOND
     1    1    2 1
     2    1   38 1
     3    1   39 1
     4    1   40 1
     5    2    3 1
     6    2   41 1
     7    2   42 1
     8    3    4 1
     9    4    5 2
    10    4    6 1
    11    6    7 1
    12    6   43 1
    13    6   44 1
    14    7   11 am
    15    7    8 1
    16    8   19 1
    17    8    9 2
    18    9   10 1
    19    9   13 1
    20   10   11 1
    21   11   12 2
    22   13   14 1
    23   13   15 1
    24   13   32 1
    25   15   16 1
    26   15   23 1
    27   15   17 1
    28   17   18 1
    29   17   19 1
    30   17   20 1
    31   20   21 2
    32   20   22 am
    33   22   23 am
    34   22   25 1
    35   23   24 2
    36   25   30 ar
    37   25   26 ar
    38   26   27 ar
    39   26   45 1
    40   27   28 ar
    41   27   46 1
    42   28   29 ar
    43   28   31 1
    44   29   30 ar
    45   29   47 1
    46   30   48 1
    47   32   37 ar
    48   32   33 ar
    49   33   34 ar
    50   33   49 1
    51   34   35 ar
    52   34   50 1
    53   35   36 ar
    54   35   51 1
    55   36   37 ar
    56   36   52 1
    57   37   53 1
@<TRIPOS>MOLECULE
ZINC09327313
   56    59     0     0     0
SMALL
USER_CHARGES
N-[3-(2-methoxyethyl)-5,7-dimethyl-benzothiazol-2-ylidene]-1-(2-thienylsulfonyl)pyrrolidine-2-carboxamide
@<TRIPOS>ATOM
      1 C1         -0.0615    3.5465   -0.8339 C.3       1 <0>        -0.1197
      2 C2          0.2991    2.0983   -0.6253 C.ar      1 <0>        -0.0353
      3 C3          1.6148    1.6959   -0.7841 C.ar      1 <0>        -0.1251
      4 C4          1.9424    0.3653   -0.5925 C.ar      1 <0>         0.0056
      5 C5          0.9600   -0.5327   -0.2483 C.ar      1 <0>        -0.1768
      6 C6         -0.3800   -0.1546   -0.0801 C.ar      1 <0>         0.1397
      7 C7         -0.6838    1.2012   -0.2810 C.ar      1 <0>        -0.1284
      8 N1         -1.2359   -1.1832    0.2668 N.pl3     1 <0>        -0.5375
      9 C8         -0.7574   -2.4462    0.4194 C.2       1 <0>         0.4065
     10 N2         -1.4275   -3.5490    0.7467 N.2       1 <0>        -0.5730
     11 C9         -2.7454   -3.5017    0.9099 C.2       1 <0>         0.4755
     12 O1         -3.4658   -3.2365   -0.0332 O.2       1 <0>        -0.4558
     13 C10        -3.3473   -3.7769    2.2638 C.3       1 <0>         0.1290
     14 H1         -3.0719   -4.7782    2.5952 H         1 <0>         0.1109
     15 C11        -2.8478   -2.7310    3.2827 C.3       1 <0>        -0.1184
     16 C12        -4.0077   -1.6950    3.3082 C.3       1 <0>        -0.1400
     17 C13        -5.2459   -2.6094    3.1339 C.3       1 <0>         0.1151
     18 N3         -4.8111   -3.6583    2.1937 N.pl3     1 <0>        -0.9915
     19 S1         -5.8064   -4.5541    1.2194 S.o2      1 <0>         2.7396
     20 O2         -6.9898   -3.7893    1.0350 O.2       1 <0>        -0.9393
     21 O3         -5.0119   -5.0028    0.1301 O.2       1 <0>        -0.9184
     22 C14        -6.2712   -5.9899    2.1287 C.2       1 <0>        -0.7707
     23 C15        -7.3295   -6.1708    2.9562 C.2       1 <0>        -0.0082
     24 C16        -7.5003   -7.3988    3.5673 C.2       1 <0>        -0.1923
     25 C17        -6.5986   -8.3825    3.3295 C.2       1 <0>        -0.1327
     26 S2         -5.4662   -7.5815    2.2056 S.3       1 <0>         0.1641
     27 S3          0.9356   -2.2760    0.0848 S.3       1 <0>         0.1647
     28 C18        -2.6610   -0.9116    0.4702 C.3       1 <0>         0.0689
     29 C19        -3.3763   -0.9008   -0.8822 C.3       1 <0>         0.0526
     30 O4         -4.7851   -0.7804   -0.6751 O.3       1 <0>        -0.3791
     31 C20        -5.5504   -0.7606   -1.8817 C.3       1 <0>         0.0353
     32 C21         3.3670   -0.0966   -0.7605 C.3       1 <0>        -0.1223
     33 H2          0.0289    4.0832    0.1105 H         1 <0>         0.0787
     34 H3          0.6132    3.9869   -1.5681 H         1 <0>         0.0748
     35 H4         -1.0875    3.6171   -1.1951 H         1 <0>         0.0704
     36 H5          2.3762    2.4123   -1.0551 H         1 <0>         0.1414
     37 H6         -1.7023    1.5425   -0.1681 H         1 <0>         0.1300
     38 H7         -2.7119   -3.1837    4.2649 H         1 <0>         0.0993
     39 H8         -1.9226   -2.2687    2.9386 H         1 <0>         0.0785
     40 H9         -3.9219   -0.9914    2.4801 H         1 <0>         0.0804
     41 H10        -4.0409   -1.1701    4.2629 H         1 <0>         0.0956
     42 H11        -6.0783   -2.0448    2.7139 H         1 <0>         0.0924
     43 H12        -5.5312   -3.0505    4.0890 H         1 <0>         0.0754
     44 H13        -8.0303   -5.3683    3.1330 H         1 <0>         0.1470
     45 H14        -8.3372   -7.5704    4.2280 H         1 <0>         0.1465
     46 H15        -6.5719   -9.3894    3.7191 H         1 <0>         0.1976
     47 H16        -3.0920   -1.6873    1.1031 H         1 <0>         0.1208
     48 H17        -2.7807    0.0587    0.9523 H         1 <0>         0.0946
     49 H18        -3.0225   -0.0564   -1.4737 H         1 <0>         0.0468
     50 H19        -3.1651   -1.8296   -1.4123 H         1 <0>         0.0779
     51 H20        -5.2417    0.0868   -2.4939 H         1 <0>         0.0395
     52 H21        -5.3843   -1.6864   -2.4325 H         1 <0>         0.0448
     53 H22        -6.6089   -0.6670   -1.6390 H         1 <0>         0.0904
     54 H23         3.5326   -0.3947   -1.7958 H         1 <0>         0.0831
     55 H24         4.0455    0.7169   -0.5037 H         1 <0>         0.0802
     56 H25         3.5533   -0.9462   -0.1036 H         1 <0>         0.0713
@<TRIPOS>BOND
     1    1    2 1
     2    1   33 1
     3    1   34 1
     4    1   35 1
     5    2    7 ar
     6    2    3 ar
     7    3    4 ar
     8    3   36 1
     9    4    5 ar
    10    4   32 1
    11    5   27 1
    12    5    6 ar
    13    6    7 ar
    14    6    8 1
    15    7   37 1
    16    8    9 1
    17    8   28 1
    18    9   10 2
    19    9   27 1
    20   10   11 1
    21   11   12 2
    22   11   13 1
    23   13   14 1
    24   13   18 1
    25   13   15 1
    26   15   16 1
    27   15   38 1
    28   15   39 1
    29   16   17 1
    30   16   40 1
    31   16   41 1
    32   17   18 1
    33   17   42 1
    34   17   43 1
    35   18   19 1
    36   19   20 2
    37   19   21 2
    38   19   22 1
    39   22   26 1
    40   22   23 2
    41   23   24 1
    42   23   44 1
    43   24   25 2
    44   24   45 1
    45   25   26 1
    46   25   46 1
    47   28   29 1
    48   28   47 1
    49   28   48 1
    50   29   30 1
    51   29   49 1
    52   29   50 1
    53   30   31 1
    54   31   51 1
    55   31   52 1
    56   31   53 1
    57   32   54 1
    58   32   55 1
    59   32   56 1
@<TRIPOS>MOLECULE
ZINC13062648
   59    64     0     0     0
SMALL
USER_CHARGES
[2-(1-methyl-2-phenyl-indol-3-yl)-2-oxo-ethyl] methyl-oxo-BLAHcarboxylate
@<TRIPOS>ATOM
      1 C1         -6.4306    4.7295    8.7462 C.3       1 <0>        -0.1255
      2 C2         -7.3479    4.5286    7.5675 C.2       1 <0>         0.0517
      3 C3         -8.7140    4.7896    7.6914 C.2       1 <0>        -0.2740
      4 C4         -9.4916    4.5638    6.5322 C.2       1 <0>         0.1339
      5 N1        -10.7995    4.7686    6.5235 N.2       1 <0>        -0.5002
      6 C5        -11.4497    5.1898    7.5811 C.2       1 <0>         0.4229
      7 N2        -10.8115    5.4448    8.7513 N.am      1 <0>        -0.5423
      8 C6         -9.4746    5.2655    8.8663 C.2       1 <0>         0.5684
      9 O1         -8.9077    5.4925    9.9203 O.2       1 <0>        -0.5029
     10 C7        -11.7638    5.9114    9.7756 C.3       1 <0>         0.0886
     11 C8        -13.1601    5.5048    9.2616 C.3       1 <0>        -0.1316
     12 C9        -12.9350    5.4643    7.7345 C.3       1 <0>        -0.0762
     13 S1         -8.2965    4.0147    5.3401 S.3       1 <0>         0.2397
     14 C10        -6.8446    4.0950    6.3751 C.2       1 <0>        -0.2533
     15 C11        -5.4584    3.7702    6.0320 C.2       1 <0>         0.5608
     16 O2         -4.5827    3.8822    6.8685 O.2       1 <0>        -0.4885
     17 O3         -5.1529    3.3468    4.7881 O.3       1 <0>        -0.3320
     18 C12        -3.7588    3.0430    4.5190 C.3       1 <0>         0.0414
     19 C13        -3.6104    2.5889    3.0898 C.2       1 <0>         0.4242
     20 O4         -4.5852    2.5273    2.3678 O.2       1 <0>        -0.4427
     21 C14        -2.3373    2.2349    2.5895 C.2       1 <0>        -0.2672
     22 C15        -1.0595    2.2530    3.3259 C.ar      1 <0>        -0.0657
     23 C16        -0.7057    2.5900    4.6306 C.ar      1 <0>        -0.0897
     24 C17         0.6111    2.4990    5.0258 C.ar      1 <0>        -0.1228
     25 C18         1.5820    2.0741    4.1307 C.ar      1 <0>        -0.1010
     26 C19         1.2459    1.7377    2.8375 C.ar      1 <0>        -0.1144
     27 C20        -0.0786    1.8228    2.4186 C.ar      1 <0>         0.0868
     28 N3         -0.6984    1.5583    1.2133 N.pl3     1 <0>        -0.4593
     29 C21        -2.0351    1.8035    1.2998 C.2       1 <0>         0.2382
     30 C22        -3.0085    1.6353    0.2038 C.ar      1 <0>        -0.0657
     31 C23        -4.2302    1.0002    0.4412 C.ar      1 <0>        -0.0380
     32 C24        -5.1376    0.8517   -0.5868 C.ar      1 <0>        -0.1226
     33 C25        -4.8355    1.3193   -1.8537 C.ar      1 <0>        -0.0965
     34 C26        -3.6251    1.9443   -2.0976 C.ar      1 <0>        -0.1272
     35 C27        -2.7106    2.1053   -1.0778 C.ar      1 <0>        -0.1008
     36 C28        -0.0127    1.0858    0.0080 C.3       1 <0>         0.0586
     37 H1         -6.0531    5.7521    8.7426 H         1 <0>         0.0828
     38 H2         -6.9807    4.5485    9.6696 H         1 <0>         0.0853
     39 H3         -5.5946    4.0334    8.6788 H         1 <0>         0.0924
     40 H4        -11.5578    5.4267   10.7299 H         1 <0>         0.1024
     41 H5        -11.7021    6.9945    9.8815 H         1 <0>         0.0979
     42 H6        -13.4442    4.5229    9.6401 H         1 <0>         0.0944
     43 H7        -13.9064    6.2537    9.5267 H         1 <0>         0.1122
     44 H8        -13.1937    6.4233    7.2856 H         1 <0>         0.1222
     45 H9        -13.5194    4.6618    7.2844 H         1 <0>         0.1215
     46 H10        -3.4515    2.3162    5.1333 H         1 <0>         0.0932
     47 H11        -3.1546    3.9356    4.6813 H         1 <0>         0.1051
     48 H12        -1.4601    2.9207    5.3291 H         1 <0>         0.1281
     49 H13         0.8884    2.7592    6.0367 H         1 <0>         0.1301
     50 H14         2.6113    2.0063    4.4506 H         1 <0>         0.1308
     51 H15         2.0099    1.4078    2.1492 H         1 <0>         0.1236
     52 H16        -4.4654    0.6308    1.4284 H         1 <0>         0.1309
     53 H17        -6.0842    0.3653   -0.4037 H         1 <0>         0.1296
     54 H18        -5.5479    1.1963   -2.6560 H         1 <0>         0.1266
     55 H19        -3.3962    2.3071   -3.0887 H         1 <0>         0.1276
     56 H20        -1.7667    2.5939   -1.2694 H         1 <0>         0.1231
     57 H21         0.0021   -0.0041    0.0020 H         1 <0>         0.0803
     58 H22         1.0099    1.4631    0.0003 H         1 <0>         0.0903
     59 H23        -0.5399    1.4469   -0.8751 H         1 <0>         0.0948
@<TRIPOS>BOND
     1    1    2 1
     2    1   37 1
     3    1   38 1
     4    1   39 1
     5    2   14 2
     6    2    3 1
     7    3    8 1
     8    3    4 2
     9    4    5 1
    10    4   13 1
    11    5    6 2
    12    6   12 1
    13    6    7 1
    14    7    8 am
    15    7   10 1
    16    8    9 2
    17   10   11 1
    18   10   40 1
    19   10   41 1
    20   11   12 1
    21   11   42 1
    22   11   43 1
    23   12   44 1
    24   12   45 1
    25   13   14 1
    26   14   15 1
    27   15   16 2
    28   15   17 1
    29   17   18 1
    30   18   19 1
    31   18   46 1
    32   18   47 1
    33   19   20 2
    34   19   21 1
    35   21   29 2
    36   21   22 1
    37   22   27 ar
    38   22   23 ar
    39   23   24 ar
    40   23   48 1
    41   24   25 ar
    42   24   49 1
    43   25   26 ar
    44   25   50 1
    45   26   27 ar
    46   26   51 1
    47   27   28 1
    48   28   29 1
    49   28   36 1
    50   29   30 1
    51   30   35 ar
    52   30   31 ar
    53   31   32 ar
    54   31   52 1
    55   32   33 ar
    56   32   53 1
    57   33   34 ar
    58   33   54 1
    59   34   35 ar
    60   34   55 1
    61   35   56 1
    62   36   57 1
    63   36   58 1
    64   36   59 1
@<TRIPOS>MOLECULE
ZINC13142009
   60    63     0     0     0
SMALL
USER_CHARGES
[2-[(3S,5R)-3,5-dimethyl-1-piperidyl]-2-oxo-ethyl] 4-chloro-3-indolin-1-ylsulfonyl-benzoate
@<TRIPOS>ATOM
      1 C1         -7.0543    7.6581  -11.7135 C.3       1 <0>        -0.1481
      2 C2         -7.1290    7.1408  -10.2755 C.3       1 <0>        -0.1072
      3 H1         -6.9637    6.0533  -10.2708 H         1 <0>         0.0754
      4 C3         -8.5091    7.4511   -9.6914 C.3       1 <0>        -0.1123
      5 C4         -8.5956    6.9044   -8.2645 C.3       1 <0>        -0.1082
      6 H2         -8.4174    5.8190   -8.2736 H         1 <0>         0.0766
      7 C5         -7.5386    7.5844   -7.3962 C.3       1 <0>         0.1027
      8 N1         -6.2221    7.4190   -8.0273 N.am      1 <0>        -0.6068
      9 C6         -6.0539    7.8286   -9.4282 C.3       1 <0>         0.1149
     10 C7         -5.1900    6.8964   -7.3359 C.2       1 <0>         0.5197
     11 O1         -4.1095    6.7604   -7.8698 O.2       1 <0>        -0.5160
     12 C8         -5.3784    6.4811   -5.8996 C.3       1 <0>         0.0473
     13 O2         -4.1295    5.9526   -5.3808 O.3       1 <0>        -0.3264
     14 C9         -4.1276    5.5336   -4.1004 C.2       1 <0>         0.5141
     15 O3         -5.1417    5.6078   -3.4356 O.2       1 <0>        -0.4904
     16 C10        -2.8931    4.9842   -3.5051 C.ar      1 <0>        -0.1380
     17 C11        -1.7255    4.8977   -4.2670 C.ar      1 <0>         0.0100
     18 C12        -0.5761    4.3834   -3.7056 C.ar      1 <0>        -0.1351
     19 C13        -0.5777    3.9524   -2.3890 C.ar      1 <0>         0.0843
     20 C14        -1.7321    4.0361   -1.6282 C.ar      1 <0>        -0.6889
     21 C15        -2.8894    4.5442   -2.1797 C.ar      1 <0>         0.0579
     22 S1         -1.7239    3.4853    0.0455 S.o2      1 <0>         2.6931
     23 O4         -3.0264    3.7277    0.5591 O.2       1 <0>        -0.9291
     24 O5         -0.5553    4.0271    0.6456 O.2       1 <0>        -0.9203
     25 N2         -1.5238    1.8417    0.0191 N.pl3     1 <0>        -0.9332
     26 C16        -0.2484    1.1479    0.2169 C.3       1 <0>         0.1039
     27 C17        -0.5816   -0.3486    0.1021 C.3       1 <0>        -0.0809
     28 C18        -2.0712   -0.3871   -0.1554 C.ar      1 <0>        -0.1231
     29 C19        -2.5468    0.9148   -0.1870 C.ar      1 <0>         0.1552
     30 C20        -3.9072    1.1339   -0.4129 C.ar      1 <0>        -0.1516
     31 C21        -4.7613    0.0679   -0.6005 C.ar      1 <0>        -0.0837
     32 C22        -4.2768   -1.2266   -0.5670 C.ar      1 <0>        -0.1391
     33 C23        -2.9307   -1.4517   -0.3444 C.ar      1 <0>        -0.0751
     34 Cl1         0.8735    3.3055   -1.6895 Cl        1 <0>        -0.0220
     35 C24        -9.9867    7.1862   -7.6932 C.3       1 <0>        -0.1493
     36 H3         -7.8264    7.1640  -12.3215 H         1 <0>         0.0613
     37 H4         -6.0612    7.4369  -12.1316 H         1 <0>         0.0596
     38 H5         -7.2216    8.7453  -11.7212 H         1 <0>         0.0585
     39 H6         -8.6645    8.5400   -9.6763 H         1 <0>         0.0677
     40 H7         -9.2847    6.9786  -10.3121 H         1 <0>         0.0701
     41 H8         -7.7736    8.6550   -7.3036 H         1 <0>         0.0786
     42 H9         -7.5319    7.1228   -6.3978 H         1 <0>         0.0855
     43 H10        -5.0578    7.5302   -9.7870 H         1 <0>         0.0964
     44 H11        -6.1625    8.9199   -9.5133 H         1 <0>         0.0727
     45 H12        -5.6836    7.3533   -5.3028 H         1 <0>         0.1081
     46 H13        -6.1569    5.7062   -5.8410 H         1 <0>         0.1078
     47 H14        -1.7230    5.2333   -5.2935 H         1 <0>         0.1644
     48 H15         0.3273    4.3159   -4.2936 H         1 <0>         0.1590
     49 H16        -3.7900    4.6051   -1.5868 H         1 <0>         0.1696
     50 H17         0.4650    1.4639   -0.5585 H         1 <0>         0.0847
     51 H18         0.1547    1.3974    1.2095 H         1 <0>         0.0917
     52 H19        -0.0105   -0.7887   -0.7286 H         1 <0>         0.0932
     53 H20        -0.3145   -0.8568    1.0404 H         1 <0>         0.0953
     54 H21        -4.2922    2.1425   -0.4399 H         1 <0>         0.1352
     55 H22        -5.8125    0.2446   -0.7740 H         1 <0>         0.1319
     56 H23        -4.9478   -2.0598   -0.7147 H         1 <0>         0.1291
     57 H24        -2.5507   -2.4623   -0.3179 H         1 <0>         0.1276
     58 H25       -10.0484    6.7931   -6.6677 H         1 <0>         0.0597
     59 H26       -10.7466    6.6965   -8.3200 H         1 <0>         0.0625
     60 H27       -10.1652    8.2716   -7.6813 H         1 <0>         0.0596
@<TRIPOS>BOND
     1    1    2 1
     2    1   36 1
     3    1   37 1
     4    1   38 1
     5    2    3 1
     6    2    9 1
     7    2    4 1
     8    4    5 1
     9    4   39 1
    10    4   40 1
    11    5    6 1
    12    5    7 1
    13    5   35 1
    14    7    8 1
    15    7   41 1
    16    7   42 1
    17    8    9 1
    18    8   10 am
    19    9   43 1
    20    9   44 1
    21   10   11 2
    22   10   12 1
    23   12   13 1
    24   12   45 1
    25   12   46 1
    26   13   14 1
    27   14   15 2
    28   14   16 1
    29   16   21 ar
    30   16   17 ar
    31   17   18 ar
    32   17   47 1
    33   18   19 ar
    34   18   48 1
    35   19   20 ar
    36   19   34 1
    37   20   21 ar
    38   20   22 1
    39   21   49 1
    40   22   23 2
    41   22   24 2
    42   22   25 1
    43   25   29 1
    44   25   26 1
    45   26   27 1
    46   26   50 1
    47   26   51 1
    48   27   28 1
    49   27   52 1
    50   27   53 1
    51   28   33 ar
    52   28   29 ar
    53   29   30 ar
    54   30   31 ar
    55   30   54 1
    56   31   32 ar
    57   31   55 1
    58   32   33 ar
    59   32   56 1
    60   33   57 1
    61   35   58 1
    62   35   59 1
    63   35   60 1
@<TRIPOS>MOLECULE
ZINC38649090
   64    68     0     0     0
SMALL
USER_CHARGES

@<TRIPOS>ATOM
      1 C1         -0.0187    1.5258    0.0104 C.3       1 <0>        -0.1531
      2 C2          0.0021   -0.0041    0.0020 C.3       1 <0>        -0.1215
      3 C3          0.7421   -0.5109    1.2415 C.3       1 <0>        -0.1205
      4 C4          0.7628   -2.0407    1.2331 C.3       1 <0>         0.0584
      5 O1          1.4540   -2.5141    2.3908 O.3       1 <0>        -0.3117
      6 C5          1.5627   -3.8609    2.5368 C.ar      1 <0>         0.1371
      7 C6          1.0204   -4.7094    1.5822 C.ar      1 <0>        -0.1978
      8 C7          1.1327   -6.0778    1.7326 C.ar      1 <0>        -0.0763
      9 C8          1.7849   -6.6024    2.8334 C.ar      1 <0>        -0.1420
     10 C9          2.3257   -5.7591    3.7861 C.ar      1 <0>        -0.0651
     11 C10         2.2211   -4.3895    3.6373 C.ar      1 <0>        -0.1217
     12 C11         3.0354   -6.3342    4.9847 C.3       1 <0>         0.2294
     13 H1          3.0941   -5.5902    5.7791 H         1 <0>         0.1288
     14 C12         4.4057   -6.7892    4.6028 C.2       1 <0>        -0.2443
     15 C13         5.5502   -6.0538    4.0544 C.2       1 <0>         0.4563
     16 O2          5.5892   -4.8383    3.9814 O.2       1 <0>        -0.4303
     17 C14         6.6569   -6.9317    3.5975 C.ar      1 <0>        -0.2131
     18 C15         7.7256   -6.4028    2.8740 C.ar      1 <0>        -0.0290
     19 C16         8.7344   -7.2253    2.4560 C.ar      1 <0>        -0.1078
     20 C17         8.6968   -8.5815    2.7488 C.ar      1 <0>        -0.0190
     21 C18         7.6507   -9.1201    3.4636 C.ar      1 <0>        -0.1339
     22 C19         6.6103   -8.3016    3.9035 C.ar      1 <0>         0.1399
     23 O3          5.5975   -8.8500    4.6124 O.3       1 <0>        -0.1799
     24 C20         4.4820   -8.1310    4.8461 C.2       1 <0>         0.0902
     25 C21         3.1829   -8.5789    5.3779 C.2       1 <0>         0.5706
     26 O4          2.9169   -9.7214    5.6942 O.2       1 <0>        -0.4752
     27 N1          2.3312   -7.5347    5.4642 N.am      1 <0>        -0.5868
     28 C22         0.9496   -7.5862    5.9488 C.3       1 <0>         0.1774
     29 H2          0.5083   -6.5913    5.8899 H         1 <0>         0.1272
     30 C23         0.1381   -8.5572    5.0753 C.3       1 <0>        -0.1546
     31 C24        -1.2166   -8.8332    5.7880 C.3       1 <0>        -0.5686
     32 S1         -0.6544   -8.9768    7.5368 S.o2      1 <0>         2.3766
     33 O5         -0.3860  -10.3420    7.8255 O.2       1 <0>        -0.9207
     34 O6         -1.5452   -8.2479    8.3701 O.2       1 <0>        -0.9304
     35 C25         0.9387   -8.0668    7.4200 C.3       1 <0>        -0.6087
     36 C26         9.8152   -9.4755    2.2787 C.3       1 <0>        -0.1268
     37 C27         9.8910   -6.6576    1.6742 C.3       1 <0>        -0.1188
     38 H3          1.0039    1.9031    0.0027 H         1 <0>         0.0565
     39 H4         -0.5459    1.8868   -0.8726 H         1 <0>         0.0580
     40 H5         -0.5289    1.8773    0.9072 H         1 <0>         0.0565
     41 H6         -1.0205   -0.3814    0.0098 H         1 <0>         0.0649
     42 H7          0.5123   -0.3556   -0.8948 H         1 <0>         0.0648
     43 H8          1.7647   -0.1336    1.2338 H         1 <0>         0.0751
     44 H9          0.2319   -0.1594    2.1383 H         1 <0>         0.0750
     45 H10        -0.2598   -2.4180    1.2409 H         1 <0>         0.0632
     46 H11         1.2730   -2.3923    0.3363 H         1 <0>         0.0628
     47 H12         0.5106   -4.3002    0.7225 H         1 <0>         0.1307
     48 H13         0.7104   -6.7386    0.9901 H         1 <0>         0.1289
     49 H14         1.8717   -7.6726    2.9492 H         1 <0>         0.1202
     50 H15         2.6476   -3.7311    4.3796 H         1 <0>         0.1377
     51 H16         7.7559   -5.3479    2.6447 H         1 <0>         0.1452
     52 H17         7.6353  -10.1774    3.6835 H         1 <0>         0.1480
     53 H18        -0.0444   -8.1091    4.0986 H         1 <0>         0.1111
     54 H19         0.6875   -9.4909    4.9547 H         1 <0>         0.1057
     55 H20        -1.9053   -7.9976    5.6628 H         1 <0>         0.1444
     56 H21        -1.6628   -9.7647    5.4397 H         1 <0>         0.1489
     57 H22         1.7795   -8.7325    7.6153 H         1 <0>         0.1515
     58 H23         0.9492   -7.2182    8.1039 H         1 <0>         0.1520
     59 H24        10.5929   -9.5161    3.0414 H         1 <0>         0.0837
     60 H25         9.4281  -10.4788    2.1009 H         1 <0>         0.0755
     61 H26        10.2336   -9.0783    1.3539 H         1 <0>         0.0810
     62 H27        10.6763   -6.3452    2.3625 H         1 <0>         0.0769
     63 H28        10.2815   -7.4188    0.9988 H         1 <0>         0.0761
     64 H29         9.5517   -5.7983    1.0959 H         1 <0>         0.0712
@<TRIPOS>BOND
     1    1    2 1
     2    1   38 1
     3    1   39 1
     4    1   40 1
     5    2    3 1
     6    2   41 1
     7    2   42 1
     8    3    4 1
     9    3   43 1
    10    3   44 1
    11    4    5 1
    12    4   45 1
    13    4   46 1
    14    5    6 1
    15    6   11 ar
    16    6    7 ar
    17    7    8 ar
    18    7   47 1
    19    8    9 ar
    20    8   48 1
    21    9   10 ar
    22    9   49 1
    23   10   11 ar
    24   10   12 1
    25   11   50 1
    26   12   13 1
    27   12   27 1
    28   12   14 1
    29   14   24 2
    30   14   15 1
    31   15   16 2
    32   15   17 1
    33   17   22 ar
    34   17   18 ar
    35   18   19 ar
    36   18   51 1
    37   19   20 ar
    38   19   37 1
    39   20   21 ar
    40   20   36 1
    41   21   22 ar
    42   21   52 1
    43   22   23 1
    44   23   24 1
    45   24   25 1
    46   25   26 2
    47   25   27 am
    48   27   28 1
    49   28   29 1
    50   28   35 1
    51   28   30 1
    52   30   31 1
    53   30   53 1
    54   30   54 1
    55   31   32 1
    56   31   55 1
    57   31   56 1
    58   32   33 2
    59   32   34 2
    60   32   35 1
    61   35   57 1
    62   35   58 1
    63   36   59 1
    64   36   60 1
    65   36   61 1
    66   37   62 1
    67   37   63 1
    68   37   64 1
@<TRIPOS>MOLECULE
ZINC41432164
   49    52     0     0     0
SMALL
USER_CHARGES

@<TRIPOS>ATOM
      1 C1         -0.0795    1.2722    2.1802 C.3       1 <0>        -0.1532
      2 C2         -0.0802   -0.2551    2.0891 C.3       1 <0>         0.0615
      3 O1         -1.4071   -0.7161    1.8268 O.3       1 <0>        -0.3478
      4 C3         -1.5809   -2.0425    1.7171 C.2       1 <0>         0.4642
      5 O2         -0.6376   -2.7876    1.8397 O.2       1 <0>        -0.4792
      6 C4         -2.9525   -2.6025    1.4410 C.3       1 <0>         0.0623
      7 O3         -2.8795   -4.0278    1.3691 O.3       1 <0>        -0.2801
      8 C5         -4.0374   -4.6926    1.1245 C.ar      1 <0>         0.2094
      9 C6         -4.0321   -6.0830    1.0486 C.ar      1 <0>        -0.1837
     10 C7         -5.1922   -6.7613    0.8034 C.ar      1 <0>         0.0679
     11 C8         -6.3851   -6.0585    0.6287 C.ar      1 <0>        -0.2995
     12 C9         -6.4029   -4.6566    0.7030 C.ar      1 <0>         0.1846
     13 C10        -5.2149   -3.9824    0.9584 C.ar      1 <0>        -0.2407
     14 O4         -7.6604   -4.2060    0.5032 O.3       1 <0>        -0.2114
     15 C11        -8.5312   -5.2210    0.2915 C.2       1 <0>        -0.0412
     16 C12        -9.8638   -5.0997    0.0605 C.2       1 <0>        -0.0045
     17 C13       -10.5126   -3.7890    0.1789 C.ar      1 <0>        -0.0981
     18 C14        -9.7432   -2.6194    0.1756 C.ar      1 <0>        -0.0302
     19 C15       -10.3607   -1.3927    0.2893 C.ar      1 <0>        -0.1248
     20 C16       -11.7394   -1.3119    0.4084 C.ar      1 <0>        -0.0291
     21 C17       -12.5121   -2.4587    0.4135 C.ar      1 <0>        -0.2026
     22 C18       -11.9109   -3.6998    0.2907 C.ar      1 <0>         0.1790
     23 O5        -12.6586   -4.8326    0.2782 O.3       1 <0>        -0.3202
     24 C19       -14.0047   -4.7247    0.7500 C.3       1 <0>         0.2192
     25 O6        -14.6134   -3.5815    0.1375 O.3       1 <0>        -0.3788
     26 C20       -14.0100   -2.3469    0.5484 C.3       1 <0>         0.1014
     27 Br1        -9.3224    0.1878    0.2834 Br        1 <0>        -0.0369
     28 C21        -7.7722   -6.4779    0.3576 C.2       1 <0>         0.4205
     29 O7         -8.1948   -7.6128    0.2190 O.2       1 <0>        -0.4172
     30 C22        -5.1838   -8.2661    0.7212 C.3       1 <0>        -0.1288
     31 H1          0.9326    1.6238    2.3802 H         1 <0>         0.0834
     32 H2         -0.4305    1.6925    1.2377 H         1 <0>         0.0684
     33 H3         -0.7402    1.5884    2.9874 H         1 <0>         0.0684
     34 H4          0.5805   -0.5712    1.2819 H         1 <0>         0.0719
     35 H5          0.2708   -0.6754    3.0316 H         1 <0>         0.0718
     36 H6         -3.6312   -2.3135    2.2434 H         1 <0>         0.1150
     37 H7         -3.3215   -2.2093    0.4937 H         1 <0>         0.1152
     38 H8         -3.1085   -6.6264    1.1835 H         1 <0>         0.1495
     39 H9         -5.2091   -2.9043    1.0236 H         1 <0>         0.1478
     40 H10       -10.4461   -5.9680   -0.2105 H         1 <0>         0.1725
     41 H11        -8.6686   -2.6783    0.0845 H         1 <0>         0.1600
     42 H12       -12.2138   -0.3459    0.4983 H         1 <0>         0.1437
     43 H13       -14.5599   -5.6232    0.4807 H         1 <0>         0.1502
     44 H14       -14.0041   -4.6026    1.8331 H         1 <0>         0.0704
     45 H15       -14.2667   -2.1295    1.5852 H         1 <0>         0.0816
     46 H16       -14.3743   -1.5445   -0.0931 H         1 <0>         0.1198
     47 H17        -5.3624   -8.6850    1.7115 H         1 <0>         0.0860
     48 H18        -5.9675   -8.5971    0.0398 H         1 <0>         0.0833
     49 H19        -4.2153   -8.6044    0.3528 H         1 <0>         0.0791
@<TRIPOS>BOND
     1    1    2 1
     2    1   31 1
     3    1   32 1
     4    1   33 1
     5    2    3 1
     6    2   34 1
     7    2   35 1
     8    3    4 1
     9    4    5 2
    10    4    6 1
    11    6    7 1
    12    6   36 1
    13    6   37 1
    14    7    8 1
    15    8   13 ar
    16    8    9 ar
    17    9   10 ar
    18    9   38 1
    19   10   11 ar
    20   10   30 1
    21   11   28 1
    22   11   12 ar
    23   12   13 ar
    24   12   14 1
    25   13   39 1
    26   14   15 1
    27   15   16 2
    28   15   28 1
    29   16   17 1
    30   16   40 1
    31   17   22 ar
    32   17   18 ar
    33   18   19 ar
    34   18   41 1
    35   19   20 ar
    36   19   27 1
    37   20   21 ar
    38   20   42 1
    39   21   26 1
    40   21   22 ar
    41   22   23 1
    42   23   24 1
    43   24   25 1
    44   24   43 1
    45   24   44 1
    46   25   26 1
    47   26   45 1
    48   26   46 1
    49   28   29 2
    50   30   47 1
    51   30   48 1
    52   30   49 1
@<TRIPOS>MOLECULE
ZINC00841324
   36    38     0     0     0
SMALL
USER_CHARGES
4-chloro-N-[5-[(2,4-dichlorophenyl)methyl]-1,3,4-thiadiazol-2-yl]-3-nitro-benzamide
@<TRIPOS>ATOM
      1 C1          1.1665    2.0892    0.0021 C.ar      1 <0>        -0.0257
      2 C2         -0.0167    1.3807    0.0096 C.ar      1 <0>        -0.1123
      3 C3          0.0021   -0.0041    0.0020 C.ar      1 <0>         0.0396
      4 C4          1.2079   -0.6860   -0.0132 C.ar      1 <0>        -0.0454
      5 C5          2.3973    0.0112   -0.0209 C.ar      1 <0>         0.0211
      6 C6          2.3849    1.4076   -0.0132 C.ar      1 <0>        -0.1293
      7 C7          3.6559    2.1607   -0.0219 C.2       1 <0>         0.5605
      8 O1          4.7154    1.5647   -0.0356 O.2       1 <0>        -0.4431
      9 N1          3.6408    3.5083   -0.0145 N.am      1 <0>        -0.6068
     10 C8          4.8364    4.2167   -0.0226 C.2       1 <0>         0.2811
     11 N2          6.0877    3.7783   -0.0379 N.2       1 <0>        -0.2756
     12 N3          7.0698    4.5697   -0.0437 N.2       1 <0>        -0.2450
     13 C9          6.9164    5.8789   -0.0351 C.2       1 <0>         0.0713
     14 S1          5.1290    5.9833   -0.0234 S.3       1 <0>         0.0057
     15 C10         7.9505    6.9752   -0.0392 C.3       1 <0>         0.0132
     16 C11         8.2809    7.3488   -1.4612 C.ar      1 <0>        -0.0802
     17 C12         9.3712    6.7773   -2.0904 C.ar      1 <0>        -0.0730
     18 C13         9.6716    7.1151   -3.3963 C.ar      1 <0>        -0.1024
     19 C14         8.8876    8.0343   -4.0713 C.ar      1 <0>        -0.0193
     20 C15         7.8000    8.6106   -3.4405 C.ar      1 <0>        -0.1016
     21 C16         7.4965    8.2677   -2.1350 C.ar      1 <0>        -0.0179
     22 Cl1         6.1313    8.9902   -1.3426 Cl        1 <0>        -0.0488
     23 Cl2         9.2696    8.4643   -5.7092 Cl        1 <0>        -0.0504
     24 N4          1.2193   -2.1661   -0.0208 N.pl3     1 <0>         0.0228
     25 O2          2.2787   -2.7669   -0.0342 O.2       1 <0>        -0.1459
     26 O3          0.1692   -2.7833   -0.0136 O.3       1 <0>        -0.1263
     27 Cl3        -1.4915   -0.8889    0.0110 Cl        1 <0>         0.0146
     28 H1          1.1506    3.1691    0.0078 H         1 <0>         0.1558
     29 H2         -0.9599    1.9069    0.0170 H         1 <0>         0.1701
     30 H3          3.3367   -0.5216   -0.0331 H         1 <0>         0.1797
     31 H4          2.7954    3.9838   -0.0035 H         1 <0>         0.4285
     32 H5          7.5576    7.8472    0.4836 H         1 <0>         0.1139
     33 H6          8.8523    6.6259    0.4637 H         1 <0>         0.1271
     34 H7          9.9859    6.0632   -1.5625 H         1 <0>         0.1503
     35 H8         10.5209    6.6650   -3.8888 H         1 <0>         0.1457
     36 H9          7.1881    9.3283   -3.9668 H         1 <0>         0.1478
@<TRIPOS>BOND
     1    1    6 ar
     2    1    2 ar
     3    1   28 1
     4    2    3 ar
     5    2   29 1
     6    3    4 ar
     7    3   27 1
     8    4    5 ar
     9    4   24 1
    10    5    6 ar
    11    5   30 1
    12    6    7 1
    13    7    8 2
    14    7    9 am
    15    9   10 1
    16    9   31 1
    17   10   14 1
    18   10   11 2
    19   11   12 1
    20   12   13 2
    21   13   14 1
    22   13   15 1
    23   15   16 1
    24   15   32 1
    25   15   33 1
    26   16   21 ar
    27   16   17 ar
    28   17   18 ar
    29   17   34 1
    30   18   19 ar
    31   18   35 1
    32   19   20 ar
    33   19   23 1
    34   20   21 ar
    35   20   36 1
    36   21   22 1
    37   24   25 2
    38   24   26 1
@<TRIPOS>MOLECULE
ZINC13769904
   59    62     0     0     0
SMALL
USER_CHARGES
(E)-2-cyano-N-cyclopentyl-3-[2-(3,5-dimethylphenoxy)-9-methyl-4-oxo-pyrido[1,2-a]pyrimidin-3-yl]prop-2-enamide
@<TRIPOS>ATOM
      1 C1         -0.0269   -1.7872   11.7628 C.3       1 <0>        -0.1017
      2 C2          0.0906   -2.3192   10.3577 C.2       1 <0>        -0.1061
      3 C3          0.3894   -3.6328   10.1436 C.2       1 <0>        -0.0212
      4 C4          0.4955   -4.1120    8.8315 C.2       1 <0>        -0.1584
      5 C5          0.3025   -3.2751    7.7866 C.2       1 <0>         0.1027
      6 N1          0.0032   -1.9616    7.9909 N.am      1 <0>        -0.4284
      7 C6         -0.1065   -1.4649    9.2591 C.2       1 <0>         0.4365
      8 N2         -0.3984   -0.1812    9.4799 N.2       1 <0>        -0.5756
      9 C7         -0.5943    0.6683    8.4865 C.2       1 <0>         0.4406
     10 C8         -0.4939    0.2137    7.1489 C.2       1 <0>        -0.3612
     11 C9         -0.1883   -1.1545    6.9249 C.2       1 <0>         0.5430
     12 O1         -0.0967   -1.5919    5.7918 O.2       1 <0>        -0.4998
     13 C10        -0.6974    1.0935    6.0706 C.2       1 <0>         0.1364
     14 C11         0.0629    2.2499    5.9654 C.2       1 <0>        -0.1450
     15 C12         1.1361    2.4871    6.8834 C.1       1 <0>         0.2584
     16 N3          1.9874    2.6753    7.6116 N.1       1 <0>        -0.4206
     17 C13        -0.2328    3.2289    4.9141 C.2       1 <0>         0.5803
     18 O2         -1.1450    3.0273    4.1339 O.2       1 <0>        -0.5295
     19 N4          0.5055    4.3519    4.8120 N.am      1 <0>        -0.7200
     20 C14         0.2101    5.3297    3.7619 C.3       1 <0>         0.1390
     21 C15         0.6962    6.7415    4.1740 C.3       1 <0>        -0.1323
     22 C16         0.8912    7.4834    2.8356 C.3       1 <0>        -0.1219
     23 C17         1.1145    6.4033    1.7627 C.3       1 <0>        -0.1237
     24 C18         1.0472    5.0426    2.4865 C.3       1 <0>        -0.1368
     25 O3         -0.8888    1.9619    8.7454 O.3       1 <0>        -0.2205
     26 C19        -0.8908    2.3686   10.0420 C.ar      1 <0>         0.0879
     27 C20        -2.0913    2.6326   10.6857 C.ar      1 <0>        -0.1160
     28 C21        -2.0908    3.0403   12.0056 C.ar      1 <0>        -0.0679
     29 C22        -0.8949    3.1965   12.6817 C.ar      1 <0>        -0.1119
     30 C23         0.3031    2.9396   12.0408 C.ar      1 <0>        -0.0675
     31 C24         0.3079    2.5261   10.7228 C.ar      1 <0>        -0.1142
     32 C25         1.6047    3.1104   12.7810 C.3       1 <0>        -0.1153
     33 C26        -3.3946    3.3207   12.7074 C.3       1 <0>        -0.1151
     34 H1         -1.0383   -1.9568   12.1321 H         1 <0>         0.0804
     35 H2          0.6861   -2.3018   12.4069 H         1 <0>         0.0769
     36 H3          0.1864   -0.7183   11.7656 H         1 <0>         0.0870
     37 H4          0.5433   -4.2988   10.9798 H         1 <0>         0.1597
     38 H5          0.7315   -5.1509    8.6541 H         1 <0>         0.1677
     39 H6          0.3862   -3.6526    6.7782 H         1 <0>         0.1899
     40 H7         -1.4453    0.8692    5.3244 H         1 <0>         0.1585
     41 H8          1.2324    4.5126    5.4338 H         1 <0>         0.3988
     42 H9         -0.8551    5.3401    3.5308 H         1 <0>         0.1028
     43 H10         1.6399    6.6770    4.7155 H         1 <0>         0.0699
     44 H11        -0.0577    7.2422    4.7814 H         1 <0>         0.0731
     45 H12         0.0014    8.0666    2.5988 H         1 <0>         0.0681
     46 H13         1.7617    8.1369    2.8944 H         1 <0>         0.0675
     47 H14         0.3329    6.4623    1.0052 H         1 <0>         0.0674
     48 H15         2.0932    6.5325    1.3007 H         1 <0>         0.0662
     49 H16         0.5479    4.3023    1.8614 H         1 <0>         0.0728
     50 H17         2.0479    4.7027    2.7534 H         1 <0>         0.0681
     51 H18        -3.0255    2.5150   10.1567 H         1 <0>         0.1306
     52 H19        -0.8964    3.5200   13.7121 H         1 <0>         0.1285
     53 H20         1.2439    2.3253   10.2228 H         1 <0>         0.1266
     54 H21         1.9646    4.1312   12.6523 H         1 <0>         0.0738
     55 H22         1.4486    2.9111   13.8412 H         1 <0>         0.0708
     56 H23         2.3422    2.4124   12.3849 H         1 <0>         0.0673
     57 H24        -3.7081    4.3432   12.4966 H         1 <0>         0.0743
     58 H25        -4.1557    2.6265   12.3511 H         1 <0>         0.0693
     59 H26        -3.2630    3.1953   13.7821 H         1 <0>         0.0701
@<TRIPOS>BOND
     1    1    2 1
     2    1   34 1
     3    1   35 1
     4    1   36 1
     5    2    7 1
     6    2    3 2
     7    3    4 1
     8    3   37 1
     9    4    5 2
    10    4   38 1
    11    5    6 1
    12    5   39 1
    13    6   11 am
    14    6    7 1
    15    7    8 2
    16    8    9 1
    17    9   10 2
    18    9   25 1
    19   10   11 1
    20   10   13 1
    21   11   12 2
    22   13   14 2
    23   13   40 1
    24   14   15 1
    25   14   17 1
    26   15   16 3
    27   17   18 2
    28   17   19 am
    29   19   20 1
    30   19   41 1
    31   20   24 1
    32   20   21 1
    33   20   42 1
    34   21   22 1
    35   21   43 1
    36   21   44 1
    37   22   23 1
    38   22   45 1
    39   22   46 1
    40   23   24 1
    41   23   47 1
    42   23   48 1
    43   24   49 1
    44   24   50 1
    45   25   26 1
    46   26   31 ar
    47   26   27 ar
    48   27   28 ar
    49   27   51 1
    50   28   29 ar
    51   28   33 1
    52   29   30 ar
    53   29   52 1
    54   30   31 ar
    55   30   32 1
    56   31   53 1
    57   32   54 1
    58   32   55 1
    59   32   56 1
    60   33   57 1
    61   33   58 1
    62   33   59 1
@<TRIPOS>MOLECULE
ZINC21657822
   58    61     0     0     0
SMALL
USER_CHARGES
N-cyclohexyl-2-[2-(3-ethylphenyl)-1,1,3-trioxo-benzo[e][1,2,4]thiadiazin-4-yl]acetamide
@<TRIPOS>ATOM
      1 C1          0.9288    5.9650   -9.9177 C.3       1 <0>        -0.1493
      2 C2         -0.0212    6.1830   -8.7384 C.3       1 <0>        -0.0862
      3 C3         -1.1553    5.1937   -8.8174 C.ar      1 <0>        -0.0627
      4 C4         -2.3089    5.5189   -9.5075 C.ar      1 <0>        -0.1203
      5 C5         -3.3518    4.6143   -9.5819 C.ar      1 <0>        -0.0852
      6 C6         -3.2421    3.3799   -8.9716 C.ar      1 <0>        -0.1580
      7 C7         -2.0876    3.0525   -8.2732 C.ar      1 <0>         0.1597
      8 C8         -1.0417    3.9635   -8.2003 C.ar      1 <0>        -0.1064
      9 N1         -1.9757    1.8051   -7.6490 N.am      1 <0>        -0.8622
     10 C9         -1.1591    1.5898   -6.5909 C.2       1 <0>         0.7010
     11 O1         -0.5134    2.5409   -6.1948 O.2       1 <0>        -0.5130
     12 N2         -0.9945    0.4465   -5.9447 N.am      1 <0>        -0.5367
     13 C10        -1.5717   -0.7970   -6.1527 C.ar      1 <0>         0.2307
     14 C11        -1.2580   -1.8844   -5.3452 C.ar      1 <0>        -0.1567
     15 C12        -1.8548   -3.1078   -5.5760 C.ar      1 <0>        -0.0273
     16 C13        -2.7685   -3.2706   -6.6014 C.ar      1 <0>        -0.1483
     17 C14        -3.0932   -2.1912   -7.4118 C.ar      1 <0>         0.0307
     18 C15        -2.5006   -0.9832   -7.1792 C.ar      1 <0>        -0.6777
     19 S1         -2.8440    0.4585   -8.1551 S.o2      1 <0>         2.6329
     20 O2         -4.2100    0.7689   -7.9163 O.2       1 <0>        -0.9143
     21 O3         -2.3662    0.1600   -9.4597 O.2       1 <0>        -0.9134
     22 C16        -0.0432    0.5026   -4.8320 C.3       1 <0>         0.0696
     23 C17        -0.7897    0.7387   -3.5443 C.2       1 <0>         0.5013
     24 O4         -1.9974    0.8493   -3.5551 O.2       1 <0>        -0.5243
     25 N3         -0.1153    0.8270   -2.3808 N.am      1 <0>        -0.7341
     26 C18        -0.8410    1.0566   -1.1291 C.3       1 <0>         0.1495
     27 C19        -0.0201    0.5152    0.0431 C.3       1 <0>        -0.1239
     28 C20        -0.7780    0.7549    1.3503 C.3       1 <0>        -0.1176
     29 C21        -1.0076    2.2558    1.5388 C.3       1 <0>        -0.1230
     30 C22        -1.8285    2.7973    0.3667 C.3       1 <0>        -0.1187
     31 C23        -1.0706    2.5575   -0.9406 C.3       1 <0>        -0.1291
     32 H1          1.7566    6.6871   -9.8600 H         1 <0>         0.0605
     33 H2          0.3815    6.1092  -10.8609 H         1 <0>         0.0579
     34 H3          1.3313    4.9420   -9.8800 H         1 <0>         0.0563
     35 H4          0.5261    6.0388   -7.7952 H         1 <0>         0.0756
     36 H5         -0.4237    7.2060   -8.7760 H         1 <0>         0.0767
     37 H6         -2.3951    6.4815   -9.9895 H         1 <0>         0.1306
     38 H7         -4.2513    4.8712  -10.1216 H         1 <0>         0.1376
     39 H8         -4.0552    2.6718   -9.0342 H         1 <0>         0.1342
     40 H9         -0.1408    3.7103   -7.6613 H         1 <0>         0.1532
     41 H10        -0.5460   -1.7731   -4.5408 H         1 <0>         0.1407
     42 H11        -1.6044   -3.9495   -4.9474 H         1 <0>         0.1441
     43 H12        -3.2273   -4.2335   -6.7712 H         1 <0>         0.1468
     44 H13        -3.8049   -2.3055   -8.2160 H         1 <0>         0.1477
     45 H14         0.5042   -0.4495   -4.7693 H         1 <0>         0.1304
     46 H15         0.6686    1.3244   -4.9992 H         1 <0>         0.1480
     47 H16         0.9801    0.7267   -2.3710 H         1 <0>         0.4216
     48 H17        -1.8006    0.5248   -1.2085 H         1 <0>         0.0875
     49 H18         0.1451   -0.5639   -0.0924 H         1 <0>         0.0691
     50 H19         0.9498    1.0326    0.0815 H         1 <0>         0.0703
     51 H20        -1.7480    0.2375    1.3119 H         1 <0>         0.0652
     52 H21        -0.1879    0.3655    2.1930 H         1 <0>         0.0688
     53 H22        -1.5525    2.4282    2.4787 H         1 <0>         0.0651
     54 H23        -0.0376    2.7732    1.5771 H         1 <0>         0.0635
     55 H24        -2.7985    2.2799    0.3284 H         1 <0>         0.0642
     56 H25        -1.9936    3.8764    0.5022 H         1 <0>         0.0660
     57 H26        -0.1006    3.0748   -0.9023 H         1 <0>         0.0653
     58 H27        -1.6607    2.9469   -1.7833 H         1 <0>         0.0662
@<TRIPOS>BOND
     1    1    2 1
     2    1   32 1
     3    1   33 1
     4    1   34 1
     5    2    3 1
     6    2   35 1
     7    2   36 1
     8    3    8 ar
     9    3    4 ar
    10    4    5 ar
    11    4   37 1
    12    5    6 ar
    13    5   38 1
    14    6    7 ar
    15    6   39 1
    16    7    8 ar
    17    7    9 1
    18    8   40 1
    19    9   19 1
    20    9   10 am
    21   10   11 2
    22   10   12 am
    23   12   13 1
    24   12   22 1
    25   13   18 ar
    26   13   14 ar
    27   14   15 ar
    28   14   41 1
    29   15   16 ar
    30   15   42 1
    31   16   17 ar
    32   16   43 1
    33   17   18 ar
    34   17   44 1
    35   18   19 1
    36   19   20 2
    37   19   21 2
    38   22   23 1
    39   22   45 1
    40   22   46 1
    41   23   24 2
    42   23   25 am
    43   25   26 1
    44   25   47 1
    45   26   31 1
    46   26   27 1
    47   26   48 1
    48   27   28 1
    49   27   49 1
    50   27   50 1
    51   28   29 1
    52   28   51 1
    53   28   52 1
    54   29   30 1
    55   29   53 1
    56   29   54 1
    57   30   31 1
    58   30   55 1
    59   30   56 1
    60   31   57 1
    61   31   58 1
@<TRIPOS>MOLECULE
ZINC15776868
   54    58     0     0     0
SMALL
USER_CHARGES

@<TRIPOS>ATOM
      1 C1         -3.6875    1.3472    0.9583 C.3       1 <0>        -0.1135
      2 C2         -3.4195   -0.1316    0.8463 C.ar      1 <0>        -0.1059
      3 C3         -3.7763   -0.8139   -0.3047 C.ar      1 <0>        -0.0665
      4 C4         -3.5372   -2.1681   -0.4219 C.ar      1 <0>        -0.1303
      5 C5         -2.9327   -2.8629    0.6202 C.ar      1 <0>         0.1551
      6 C6         -2.5733   -2.1688    1.7826 C.ar      1 <0>        -0.0892
      7 C7         -2.8133   -0.8033    1.8889 C.ar      1 <0>        -0.0341
      8 C8         -1.9615   -3.1652    2.6922 C.2       1 <0>         0.0626
      9 N1         -1.4796   -2.9591    3.8953 N.2       1 <0>        -0.0880
     10 N2         -0.9326   -4.0241    4.6229 N.pl3     1 <0>        -0.5412
     11 C9         -0.4268   -3.8078    5.8856 C.2       1 <0>         0.6460
     12 N3         -0.3790   -2.5807    6.3360 N.2       1 <0>        -0.5336
     13 C10         0.1059   -2.2962    7.5676 C.ar      1 <0>         0.1889
     14 C11         0.1567   -0.9852    8.0495 C.ar      1 <0>        -0.1178
     15 C12         0.6530   -0.7396    9.2986 C.ar      1 <0>        -0.0634
     16 C13         1.1106   -1.7758   10.1026 C.ar      1 <0>        -0.1498
     17 C14         1.0740   -3.0784    9.6557 C.ar      1 <0>        -0.0313
     18 C15         0.5711   -3.3520    8.3845 C.ar      1 <0>        -0.2179
     19 C16         0.5059   -4.7205    7.8540 C.2       1 <0>         0.5669
     20 O1          0.8913   -5.6708    8.5100 O.2       1 <0>        -0.4902
     21 N4         -0.0035   -4.8861    6.6112 N.am      1 <0>        -0.5084
     22 C17        -0.0921   -6.1715    6.0619 C.ar      1 <0>         0.0772
     23 C18         0.9706   -6.6926    5.3358 C.ar      1 <0>        -0.0956
     24 C19         0.8802   -7.9604    4.7954 C.ar      1 <0>        -0.1048
     25 C20        -0.2672   -8.7107    4.9768 C.ar      1 <0>        -0.0931
     26 C21        -1.3274   -8.1943    5.6991 C.ar      1 <0>        -0.1060
     27 C22        -1.2406   -6.9296    6.2472 C.ar      1 <0>        -0.0945
     28 C23        -2.0120   -4.4395    1.9511 C.2       1 <0>         0.5413
     29 O2         -1.6073   -5.5162    2.3493 O.2       1 <0>        -0.4974
     30 N5         -2.5846   -4.2018    0.7588 N.am      1 <0>        -0.5328
     31 C24        -2.8126   -5.2240   -0.2656 C.3       1 <0>         0.1401
     32 C25        -1.6134   -5.3001   -1.1750 C.2       1 <0>        -0.1900
     33 C26        -1.0024   -6.4442   -1.3590 C.2       1 <0>        -0.1544
     34 H1         -2.8301    1.9018    0.5769 H         1 <0>         0.0734
     35 H2         -4.5729    1.6011    0.3756 H         1 <0>         0.0696
     36 H3         -3.8533    1.6082    2.0036 H         1 <0>         0.0702
     37 H4         -4.2466   -0.2814   -1.1182 H         1 <0>         0.1368
     38 H5         -3.8205   -2.6893   -1.3244 H         1 <0>         0.1336
     39 H6         -2.5306   -0.2713    2.7852 H         1 <0>         0.1399
     40 H7         -0.9102   -4.9139    4.2373 H         1 <0>         0.4216
     41 H8         -0.1950   -0.1688    7.4363 H         1 <0>         0.1406
     42 H9          0.6903    0.2753    9.6661 H         1 <0>         0.1346
     43 H10         1.4988   -1.5582   11.0866 H         1 <0>         0.1334
     44 H11         1.4316   -3.8804   10.2843 H         1 <0>         0.1371
     45 H12         1.8669   -6.1070    5.1935 H         1 <0>         0.1280
     46 H13         1.7063   -8.3661    4.2303 H         1 <0>         0.1354
     47 H14        -0.3355   -9.7018    4.5533 H         1 <0>         0.1336
     48 H15        -2.2223   -8.7826    5.8387 H         1 <0>         0.1352
     49 H16        -2.0670   -6.5289    6.8155 H         1 <0>         0.1279
     50 H17        -2.9670   -6.1906    0.2138 H         1 <0>         0.0976
     51 H18        -3.6953   -4.9628   -0.8493 H         1 <0>         0.1008
     52 H19        -1.2576   -4.4114   -1.6751 H         1 <0>         0.1160
     53 H20        -0.1430   -6.4987   -2.0107 H         1 <0>         0.1051
     54 H21        -1.3582   -7.3329   -0.8589 H         1 <0>         0.1014
@<TRIPOS>BOND
     1    1    2 1
     2    1   34 1
     3    1   35 1
     4    1   36 1
     5    2    7 ar
     6    2    3 ar
     7    3    4 ar
     8    3   37 1
     9    4    5 ar
    10    4   38 1
    11    5   30 1
    12    5    6 ar
    13    6    7 ar
    14    6    8 1
    15    7   39 1
    16    8    9 2
    17    8   28 1
    18    9   10 1
    19   10   11 1
    20   10   40 1
    21   11   21 1
    22   11   12 2
    23   12   13 1
    24   13   18 ar
    25   13   14 ar
    26   14   15 ar
    27   14   41 1
    28   15   16 ar
    29   15   42 1
    30   16   17 ar
    31   16   43 1
    32   17   18 ar
    33   17   44 1
    34   18   19 1
    35   19   20 2
    36   19   21 am
    37   21   22 1
    38   22   27 ar
    39   22   23 ar
    40   23   24 ar
    41   23   45 1
    42   24   25 ar
    43   24   46 1
    44   25   26 ar
    45   25   47 1
    46   26   27 ar
    47   26   48 1
    48   27   49 1
    49   28   29 2
    50   28   30 am
    51   30   31 1
    52   31   32 1
    53   31   50 1
    54   31   51 1
    55   32   33 2
    56   32   52 1
    57   33   53 1
    58   33   54 1
@<TRIPOS>MOLECULE
ZINC33350929
   38    40     0     0     0
SMALL
USER_CHARGES

@<TRIPOS>ATOM
      1 C1         -0.1707    1.6113    1.2656 C.ar      1 <0>        -0.1217
      2 C2          0.9608    2.3540    1.4834 C.ar      1 <0>        -0.0360
      3 C3          2.1681    1.7258    1.7522 C.ar      1 <0>        -0.0110
      4 C4          2.2454    0.3417    1.8043 C.ar      1 <0>        -0.0358
      5 C5          1.1265   -0.4210    1.5902 C.ar      1 <0>        -0.1049
      6 C6         -0.1041    0.2058    1.3161 C.ar      1 <0>         0.0492
      7 C7         -1.2676   -0.5725    1.0930 C.2       1 <0>        -0.0143
      8 C8         -1.3162   -1.9885    1.0891 C.2       1 <0>        -0.1330
      9 C9         -2.5998   -2.3532    0.8410 C.2       1 <0>        -0.1417
     10 C10        -3.3623   -1.1045    0.6880 C.2       1 <0>        -0.0191
     11 O1         -2.4963   -0.0815    0.8582 O.3       1 <0>        -0.1566
     12 C11        -4.7204   -0.9972    0.4236 C.2       1 <0>         0.0804
     13 N1         -5.2630    0.1961    0.2090 N.2       1 <0>        -0.1966
     14 N2         -4.5072    1.2303    0.0565 N.am      1 <0>        -0.5192
     15 C12        -5.0560    2.4572   -0.0436 C.2       1 <0>         0.5689
     16 O2         -6.2533    2.6009    0.1036 O.2       1 <0>        -0.4675
     17 C13        -4.2023    3.6263   -0.3323 C.ar      1 <0>        -0.1247
     18 C14        -2.8487    3.4501   -0.6309 C.ar      1 <0>        -0.0852
     19 C15        -2.0569    4.5463   -0.8995 C.ar      1 <0>        -0.0954
     20 C16        -2.6004    5.8201   -0.8739 C.ar      1 <0>        -0.0605
     21 C17        -3.9415    6.0017   -0.5786 C.ar      1 <0>        -0.0926
     22 C18        -4.7456    4.9136   -0.3138 C.ar      1 <0>        -0.0432
     23 Br1        -1.5066    7.3179   -1.2430 Br        1 <0>        -0.0274
     24 N3          3.3833    2.5386    1.9847 N.pl3     1 <0>        -0.0209
     25 O3          3.3157    3.8530    1.9359 O.2       1 <0>        -0.1664
     26 O4          4.5320    1.9474    2.2403 O.3       1 <0>        -0.1665
     27 H1         -1.1104    2.1024    1.0606 H         1 <0>         0.1456
     28 H2          0.9121    3.4322    1.4452 H         1 <0>         0.1609
     29 H3          3.1906   -0.1368    2.0141 H         1 <0>         0.1638
     30 H4          1.1890   -1.4984    1.6309 H         1 <0>         0.1574
     31 H5         -0.4834   -2.6562    1.2532 H         1 <0>         0.1690
     32 H6         -2.9847   -3.3598    0.7696 H         1 <0>         0.1741
     33 H7         -5.3362   -1.8839    0.3923 H         1 <0>         0.2113
     34 H8         -3.5439    1.1250    0.0140 H         1 <0>         0.3858
     35 H9         -2.4237    2.4575   -0.6508 H         1 <0>         0.1288
     36 H10        -1.0104    4.4115   -1.1301 H         1 <0>         0.1446
     37 H11        -4.3591    6.9975   -0.5602 H         1 <0>         0.1482
     38 H12        -5.7921    5.0561   -0.0881 H         1 <0>         0.1521
@<TRIPOS>BOND
     1    1    6 ar
     2    1    2 ar
     3    1   27 1
     4    2    3 ar
     5    2   28 1
     6    3    4 ar
     7    3   24 1
     8    4    5 ar
     9    4   29 1
    10    5    6 ar
    11    5   30 1
    12    6    7 1
    13    7   11 1
    14    7    8 2
    15    8    9 1
    16    8   31 1
    17    9   10 2
    18    9   32 1
    19   10   11 1
    20   10   12 1
    21   12   13 2
    22   12   33 1
    23   13   14 1
    24   14   15 am
    25   14   34 1
    26   15   16 2
    27   15   17 1
    28   17   22 ar
    29   17   18 ar
    30   18   19 ar
    31   18   35 1
    32   19   20 ar
    33   19   36 1
    34   20   21 ar
    35   20   23 1
    36   21   22 ar
    37   21   37 1
    38   22   38 1
    39   24   25 2
    40   24   26 1
@<TRIPOS>MOLECULE
ZINC09347555
   58    62     0     0     0
SMALL
USER_CHARGES
ethyl methyl 8-(oxoBLAHyl)carbonylamino-7-thia-4-azabicyclo[4.3.0]nona-8,10-diene-4,9-dicarboxylate
@<TRIPOS>ATOM
      1 C1         -9.7236   14.6266   -3.0277 C.3       1 <0>        -0.1542
      2 C2        -10.4004   13.4037   -2.4052 C.3       1 <0>         0.0820
      3 O1         -9.4585   12.7180   -1.5387 O.3       1 <0>        -0.3686
      4 C3         -9.9000   11.6126   -0.9094 C.2       1 <0>         0.6585
      5 O2        -11.0411   11.2314   -1.0796 O.2       1 <0>        -0.5673
      6 N1         -9.0762   10.9290   -0.0906 N.am      1 <0>        -0.5947
      7 C4         -9.5294    9.7179    0.6102 C.3       1 <0>         0.1308
      8 C5         -8.7316    8.5103    0.1149 C.3       1 <0>        -0.0811
      9 C6         -7.2479    8.8559    0.1134 C.2       1 <0>        -0.0467
     10 C7         -6.8259   10.1387    0.1183 C.2       1 <0>        -0.2437
     11 S1         -5.0592   10.0385    0.1082 S.3       1 <0>         0.2884
     12 C8         -4.8773    8.3155    0.0907 C.2       1 <0>         0.0864
     13 C9         -6.1891    7.8590    0.1006 C.2       1 <0>        -0.2107
     14 C10        -6.4946    6.4271    0.0987 C.2       1 <0>         0.5295
     15 O3         -6.6120    5.8288    1.1513 O.2       1 <0>        -0.4905
     16 O4         -6.6459    5.7714   -1.0704 O.3       1 <0>        -0.3505
     17 C11        -6.9478    4.3530   -0.9963 C.3       1 <0>         0.0303
     18 N2         -3.7081    7.5737    0.0766 N.am      1 <0>        -0.6192
     19 C12        -2.5138    8.1983    0.0686 C.2       1 <0>         0.5711
     20 O5         -2.4630    9.4137    0.0738 O.2       1 <0>        -0.4599
     21 C13        -1.2719    7.4104    0.0535 C.2       1 <0>        -0.2723
     22 C14        -1.3125    6.0212    0.0464 C.2       1 <0>         0.0627
     23 C15        -0.0983    5.3091    0.0315 C.ar      1 <0>        -0.1807
     24 C16        -0.0937    3.8438    0.0236 C.ar      1 <0>         0.0106
     25 C17        -1.2818    3.1090    0.0314 C.ar      1 <0>        -0.1277
     26 C18        -1.2322    1.7448    0.0174 C.ar      1 <0>        -0.0797
     27 C19        -0.0126    1.0758    0.0080 C.ar      1 <0>        -0.1226
     28 C20         1.1642    1.7636    0.0004 C.ar      1 <0>        -0.0787
     29 C21         1.1485    3.1673    0.0081 C.ar      1 <0>        -0.0853
     30 C22         2.3442    3.9128    0.0017 C.ar      1 <0>        -0.0108
     31 C23         2.3252    5.2688    0.0082 C.ar      1 <0>        -0.1496
     32 C24         1.1263    5.9916    0.0235 C.ar      1 <0>         0.2090
     33 O6          1.1612    7.3409    0.0300 O.3       1 <0>        -0.2525
     34 C25         0.0354    8.0733    0.0447 C.2       1 <0>         0.5229
     35 O7          0.1008    9.2886    0.0502 O.2       1 <0>        -0.4124
     36 C26        -7.6848   11.3673    0.1363 C.3       1 <0>         0.2040
     37 H1         -9.3979   15.3031   -2.2375 H         1 <0>         0.0677
     38 H2         -8.8601   14.3065   -3.6107 H         1 <0>         0.0674
     39 H3        -10.4307   15.1414   -3.6782 H         1 <0>         0.0834
     40 H4        -10.7261   12.7272   -3.1954 H         1 <0>         0.0711
     41 H5        -11.2639   13.7238   -1.8221 H         1 <0>         0.0718
     42 H6         -9.3752    9.8397    1.6824 H         1 <0>         0.0844
     43 H7        -10.5893    9.5587    0.4116 H         1 <0>         0.1067
     44 H8         -9.0472    8.2558   -0.8969 H         1 <0>         0.0885
     45 H9         -8.9072    7.6617    0.7761 H         1 <0>         0.0912
     46 H10        -7.0439    3.9489   -2.0040 H         1 <0>         0.1052
     47 H11        -6.1428    3.8370   -0.4731 H         1 <0>         0.0631
     48 H12        -7.8835    4.2084   -0.4561 H         1 <0>         0.0669
     49 H13        -3.7486    6.6045    0.0724 H         1 <0>         0.4146
     50 H14        -2.2573    5.4981    0.0527 H         1 <0>         0.1489
     51 H15        -2.2345    3.6175    0.0433 H         1 <0>         0.1285
     52 H16        -2.1514    1.1778    0.0184 H         1 <0>         0.1330
     53 H17         0.0021   -0.0041    0.0020 H         1 <0>         0.1326
     54 H18         2.1039    1.2314   -0.0118 H         1 <0>         0.1378
     55 H19         3.2921    3.3954   -0.0101 H         1 <0>         0.1517
     56 H20         3.2618    5.8065    0.0018 H         1 <0>         0.1530
     57 H21        -7.6045   11.8624    1.1040 H         1 <0>         0.0954
     58 H22        -7.3759   12.0480   -0.6570 H         1 <0>         0.1104
@<TRIPOS>BOND
     1    1    2 1
     2    1   37 1
     3    1   38 1
     4    1   39 1
     5    2    3 1
     6    2   40 1
     7    2   41 1
     8    3    4 1
     9    4    5 2
    10    4    6 am
    11    6   36 1
    12    6    7 1
    13    7    8 1
    14    7   42 1
    15    7   43 1
    16    8    9 1
    17    8   44 1
    18    8   45 1
    19    9   13 1
    20    9   10 2
    21   10   11 1
    22   10   36 1
    23   11   12 1
    24   12   13 2
    25   12   18 1
    26   13   14 1
    27   14   15 2
    28   14   16 1
    29   16   17 1
    30   17   46 1
    31   17   47 1
    32   17   48 1
    33   18   19 am
    34   18   49 1
    35   19   20 2
    36   19   21 1
    37   21   34 1
    38   21   22 2
    39   22   23 1
    40   22   50 1
    41   23   32 ar
    42   23   24 ar
    43   24   29 ar
    44   24   25 ar
    45   25   26 ar
    46   25   51 1
    47   26   27 ar
    48   26   52 1
    49   27   28 ar
    50   27   53 1
    51   28   29 ar
    52   28   54 1
    53   29   30 ar
    54   30   31 ar
    55   30   55 1
    56   31   32 ar
    57   31   56 1
    58   32   33 1
    59   33   34 1
    60   34   35 2
    61   36   57 1
    62   36   58 1
@<TRIPOS>MOLECULE
ZINC03561531
   53    55     0     0     0
SMALL
USER_CHARGES
2-(4-chlorophenoxy)-2-methyl-N-[2-[(5Z)-5-[(4-nitrophenyl)methylene]-2,4-dioxo-thiazolidin-3-yl]ethyl]propanamide
@<TRIPOS>ATOM
      1 C1          6.3924   12.1306    2.8871 C.3       1 <0>        -0.2007
      2 C2          5.0420   11.5915    3.3632 C.3       1 <0>         0.1004
      3 C3          3.9151   12.4244    2.7490 C.3       1 <0>        -0.1388
      4 C4          4.8955   10.1542    2.9344 C.2       1 <0>         0.4927
      5 O1          4.7460    9.2852    3.7671 O.2       1 <0>        -0.5061
      6 N1          4.9306    9.8346    1.6255 N.am      1 <0>        -0.7221
      7 C5          4.7881    8.4374    1.2087 C.3       1 <0>         0.1061
      8 C6          4.8629    8.3502   -0.3170 C.3       1 <0>         0.0810
      9 N2          4.7205    6.9530   -0.7339 N.am      1 <0>        -0.5744
     10 C7          3.5135    6.4726   -0.9815 C.2       1 <0>         0.5580
     11 O2          2.5162    7.1610   -0.8722 O.2       1 <0>        -0.4540
     12 C8          3.4383    5.0561   -1.3984 C.2       1 <0>        -0.1905
     13 C9          2.3550    4.3042   -1.7131 C.2       1 <0>         0.0570
     14 C10         2.5331    2.9537   -2.2663 C.ar      1 <0>        -0.0395
     15 C11         1.4643    2.0507   -2.2754 C.ar      1 <0>        -0.0802
     16 C12         1.6395    0.7863   -2.7963 C.ar      1 <0>        -0.0550
     17 C13         2.8686    0.4093   -3.3094 C.ar      1 <0>        -0.0263
     18 C14         3.9308    1.2968   -3.3046 C.ar      1 <0>        -0.0480
     19 C15         3.7723    2.5647   -2.7869 C.ar      1 <0>        -0.0973
     20 N3          3.0478   -0.9502   -3.8668 N.pl3     1 <0>         0.0220
     21 O3          2.1152   -1.7336   -3.8731 O.2       1 <0>        -0.1497
     22 O4          4.1279   -1.2854   -4.3192 O.3       1 <0>        -0.1498
     23 S1          5.1679    4.6055   -1.3658 S.3       1 <0>        -0.0321
     24 C16         5.8231    6.1866   -0.8567 C.2       1 <0>         0.5382
     25 O5          6.9832    6.4961   -0.6628 O.2       1 <0>        -0.4025
     26 O6          4.9722   11.6729    4.7882 O.3       1 <0>        -0.2806
     27 C17         5.9552   11.0504    5.4907 C.ar      1 <0>         0.1425
     28 C18         6.8709   10.2403    4.8352 C.ar      1 <0>        -0.1764
     29 C19         7.8722    9.6122    5.5503 C.ar      1 <0>        -0.0755
     30 C20         7.9558    9.7824    6.9210 C.ar      1 <0>        -0.0691
     31 C21         7.0402   10.5858    7.5773 C.ar      1 <0>        -0.0730
     32 C22         6.0406   11.2197    6.8649 C.ar      1 <0>        -0.1371
     33 Cl1         9.2113    8.9873    7.8183 Cl        1 <0>        -0.0708
     34 H1          6.5061   11.9353    1.8208 H         1 <0>         0.0795
     35 H2          6.4385   13.2047    3.0667 H         1 <0>         0.0871
     36 H3          7.1946   11.6359    3.4347 H         1 <0>         0.0887
     37 H4          2.9576   12.0921    3.1501 H         1 <0>         0.0771
     38 H5          4.0660   13.4759    2.9929 H         1 <0>         0.0854
     39 H6          3.9188   12.2984    1.6663 H         1 <0>         0.0835
     40 H7          5.0501   10.5296    0.9596 H         1 <0>         0.4040
     41 H8          3.8261    8.0533    1.5479 H         1 <0>         0.0800
     42 H9          5.5910    7.8440    1.6463 H         1 <0>         0.0775
     43 H10         5.8249    8.7343   -0.6562 H         1 <0>         0.1092
     44 H11         4.0600    8.9436   -0.7546 H         1 <0>         0.1130
     45 H12         1.3611    4.6972   -1.5575 H         1 <0>         0.1750
     46 H13         0.5035    2.3449   -1.8794 H         1 <0>         0.1601
     47 H14         0.8157    0.0880   -2.8038 H         1 <0>         0.1633
     48 H15         4.8865    0.9951   -3.7072 H         1 <0>         0.1630
     49 H16         4.6022    3.2558   -2.7832 H         1 <0>         0.1563
     50 H17         6.8036   10.1040    3.7660 H         1 <0>         0.1335
     51 H18         8.5878    8.9848    5.0398 H         1 <0>         0.1335
     52 H19         7.1072   10.7177    8.6471 H         1 <0>         0.1410
     53 H20         5.3264   11.8470    7.3775 H         1 <0>         0.1409
@<TRIPOS>BOND
     1    1    2 1
     2    1   34 1
     3    1   35 1
     4    1   36 1
     5    2    3 1
     6    2    4 1
     7    2   26 1
     8    3   37 1
     9    3   38 1
    10    3   39 1
    11    4    5 2
    12    4    6 am
    13    6    7 1
    14    6   40 1
    15    7    8 1
    16    7   41 1
    17    7   42 1
    18    8    9 1
    19    8   43 1
    20    8   44 1
    21    9   24 am
    22    9   10 am
    23   10   11 2
    24   10   12 1
    25   12   13 2
    26   12   23 1
    27   13   14 1
    28   13   45 1
    29   14   19 ar
    30   14   15 ar
    31   15   16 ar
    32   15   46 1
    33   16   17 ar
    34   16   47 1
    35   17   18 ar
    36   17   20 1
    37   18   19 ar
    38   18   48 1
    39   19   49 1
    40   20   21 2
    41   20   22 1
    42   23   24 1
    43   24   25 2
    44   26   27 1
    45   27   32 ar
    46   27   28 ar
    47   28   29 ar
    48   28   50 1
    49   29   30 ar
    50   29   51 1
    51   30   31 ar
    52   30   33 1
    53   31   32 ar
    54   31   52 1
    55   32   53 1
@<TRIPOS>MOLECULE
ZINC23123251
   60    62     0     0     0
SMALL
USER_CHARGES
(2R)-N-[5-(azepan-1-ylsulfonyl)-2-methoxy-phenyl]-2-(4-nitrophenyl)sulfanyl-propanamide
@<TRIPOS>ATOM
      1 C1         -4.7782    1.3291   -1.7681 C.3       1 <0>        -0.1362
      2 C2         -4.7377    0.2175   -0.7175 C.3       1 <0>        -0.1242
      3 H1         -4.6173    0.7396    0.2432 H         1 <0>         0.1212
      4 C3         -3.4589   -0.5663   -0.8645 C.2       1 <0>         0.5007
      5 O1         -3.4442   -1.5849   -1.5228 O.2       1 <0>        -0.4900
      6 N1         -2.3317   -0.1353   -0.2645 N.am      1 <0>        -0.6724
      7 C4         -1.1215   -0.8075   -0.4817 C.ar      1 <0>         0.1006
      8 C5         -1.1130   -2.1823   -0.6671 C.ar      1 <0>         0.0101
      9 C6          0.0824   -2.8436   -0.8755 C.ar      1 <0>        -0.6958
     10 C7          1.2711   -2.1378   -0.9051 C.ar      1 <0>         0.0087
     11 C8          1.2699   -0.7669   -0.7264 C.ar      1 <0>        -0.2103
     12 C9          0.0758   -0.0963   -0.5169 C.ar      1 <0>         0.1609
     13 O2          0.0731    1.2519   -0.3405 O.3       1 <0>        -0.3123
     14 C10         1.3386    1.9143   -0.3832 C.3       1 <0>         0.0200
     15 S1          0.0918   -4.5907   -1.1046 S.o2      1 <0>         2.6847
     16 O3         -1.2007   -4.9453   -1.5768 O.2       1 <0>        -0.9490
     17 O4          1.2772   -4.8994   -1.8248 O.2       1 <0>        -0.9512
     18 N2          0.2543   -5.2799    0.3924 N.pl3     1 <0>        -0.9851
     19 C11         1.5845   -5.5504    0.8901 C.3       1 <0>         0.1228
     20 C12         2.0338   -6.9596    0.4501 C.3       1 <0>        -0.1411
     21 C13         1.2840   -7.9877    1.1880 C.3       1 <0>        -0.1202
     22 C14        -0.2202   -7.9724    0.9338 C.3       1 <0>        -0.1225
     23 C15        -0.8726   -6.9700    1.8536 C.3       1 <0>        -0.1273
     24 C16        -0.9650   -5.5983    1.1609 C.3       1 <0>         0.1084
     25 S2         -6.1556   -0.8891   -0.9531 S.3       1 <0>         0.0248
     26 C17        -6.1060   -1.9507    0.4523 C.ar      1 <0>        -0.0460
     27 C18        -5.1896   -1.7161    1.4704 C.ar      1 <0>        -0.1386
     28 C19        -5.1575   -2.5467    2.5730 C.ar      1 <0>        -0.0282
     29 C20        -6.0284   -3.6176    2.6597 C.ar      1 <0>        -0.0553
     30 C21        -6.9376   -3.8578    1.6455 C.ar      1 <0>        -0.0283
     31 C22        -6.9793   -3.0280    0.5426 C.ar      1 <0>        -0.0994
     32 N3         -5.9871   -4.5090    3.8405 N.pl3     1 <0>         0.0308
     33 O5         -6.7532   -5.4527    3.9182 O.2       1 <0>        -0.1575
     34 O6         -5.1871   -4.2988    4.7345 O.3       1 <0>        -0.1621
     35 H2         -5.7116    1.9012   -1.6608 H         1 <0>         0.0881
     36 H3         -4.7338    0.8851   -2.7735 H         1 <0>         0.0769
     37 H4         -3.9184    2.0001   -1.6252 H         1 <0>         0.0853
     38 H5         -2.3617    0.7441    0.3956 H         1 <0>         0.4401
     39 H6         -2.0399   -2.7361   -0.6444 H         1 <0>         0.1617
     40 H7          2.2029   -2.6589   -1.0679 H         1 <0>         0.1456
     41 H8          2.2001   -0.2187   -0.7498 H         1 <0>         0.1449
     42 H9          1.1930    2.9934   -0.2274 H         1 <0>         0.1091
     43 H10         1.8079    1.7454   -1.3636 H         1 <0>         0.0631
     44 H11         1.9889    1.5139    0.4085 H         1 <0>         0.0632
     45 H12         2.2853   -4.8041    0.4877 H         1 <0>         0.0788
     46 H13         1.5829   -5.4968    1.9888 H         1 <0>         0.0844
     47 H14         1.8487   -7.0838   -0.6271 H         1 <0>         0.0724
     48 H15         3.1077   -7.0824    0.6541 H         1 <0>         0.0790
     49 H16         1.6485   -8.9848    0.9001 H         1 <0>         0.0608
     50 H17         1.4289   -7.8423    2.2687 H         1 <0>         0.0620
     51 H18        -0.4124   -7.6913   -0.1121 H         1 <0>         0.0624
     52 H19        -0.6349   -8.9728    1.1267 H         1 <0>         0.0663
     53 H20        -1.8854   -7.3134    2.1109 H         1 <0>         0.0769
     54 H21        -0.2747   -6.8713    2.7716 H         1 <0>         0.0706
     55 H22        -1.1201   -4.8334    1.9360 H         1 <0>         0.0658
     56 H23        -1.8315   -5.6148    0.4835 H         1 <0>         0.0943
     57 H24        -4.5065   -0.8824    1.4015 H         1 <0>         0.1362
     58 H25        -4.4487   -2.3624    3.3667 H         1 <0>         0.1558
     59 H26        -7.6159   -4.6952    1.7164 H         1 <0>         0.1611
     60 H27        -7.6900   -3.2157   -0.2486 H         1 <0>         0.1548
@<TRIPOS>BOND
     1    1    2 1
     2    1   35 1
     3    1   36 1
     4    1   37 1
     5    2    3 1
     6    2    4 1
     7    2   25 1
     8    4    5 2
     9    4    6 am
    10    6    7 1
    11    6   38 1
    12    7   12 ar
    13    7    8 ar
    14    8    9 ar
    15    8   39 1
    16    9   10 ar
    17    9   15 1
    18   10   11 ar
    19   10   40 1
    20   11   12 ar
    21   11   41 1
    22   12   13 1
    23   13   14 1
    24   14   42 1
    25   14   43 1
    26   14   44 1
    27   15   16 2
    28   15   17 2
    29   15   18 1
    30   18   24 1
    31   18   19 1
    32   19   20 1
    33   19   45 1
    34   19   46 1
    35   20   21 1
    36   20   47 1
    37   20   48 1
    38   21   22 1
    39   21   49 1
    40   21   50 1
    41   22   23 1
    42   22   51 1
    43   22   52 1
    44   23   24 1
    45   23   53 1
    46   23   54 1
    47   24   55 1
    48   24   56 1
    49   25   26 1
    50   26   31 ar
    51   26   27 ar
    52   27   28 ar
    53   27   57 1
    54   28   29 ar
    55   28   58 1
    56   29   30 ar
    57   29   32 1
    58   30   31 ar
    59   30   59 1
    60   31   60 1
    61   32   33 2
    62   32   34 1
@<TRIPOS>MOLECULE
ZINC39453263
   56    60     0     0     0
SMALL
USER_CHARGES

@<TRIPOS>ATOM
      1 C1          0.3495    1.5217   -0.1985 C.3       1 <0>        -0.1557
      2 C2          0.3048   -0.0074   -0.1698 C.3       1 <0>         0.0523
      3 O1          0.9375   -0.4801    1.0211 O.3       1 <0>        -0.3047
      4 C3          0.9835   -1.8242    1.2023 C.ar      1 <0>         0.1794
      5 C4          0.4422   -2.6737    0.2622 C.ar      1 <0>        -0.2219
      6 C5          0.4793   -4.0531    0.4290 C.ar      1 <0>        -0.0323
      7 C6          1.0489   -4.6305    1.5227 C.ar      1 <0>        -0.1392
      8 C7          1.6200   -3.8240    2.5226 C.ar      1 <0>         0.1936
      9 C8          1.5910   -2.3690    2.3521 C.ar      1 <0>        -0.1310
     10 C9          2.1651   -1.5579    3.3399 C.ar      1 <0>         0.0574
     11 C10         2.7394   -2.1840    4.4378 C.ar      1 <0>        -0.1910
     12 C11         2.7351   -3.6003    4.5384 C.ar      1 <0>         0.2092
     13 N1          2.1838   -4.3566    3.6070 N.ar      1 <0>        -0.4576
     14 C12         3.3545   -4.2096    5.7283 C.2       1 <0>         0.2681
     15 C13         3.9194   -3.4056    6.6979 C.2       1 <0>        -0.0584
     16 N2          3.9100   -2.0203    6.5735 N.am      1 <0>        -0.8602
     17 C14         3.3606   -1.3987    5.5157 C.2       1 <0>         0.5639
     18 O2          3.3774   -0.1835    5.4494 O.2       1 <0>        -0.4467
     19 S1          4.5988   -1.1053    7.7697 S.o2      1 <0>         2.7543
     20 O3          4.6094    0.2358    7.3000 O.2       1 <0>        -0.9342
     21 O4          3.9656   -1.4820    8.9847 O.2       1 <0>        -0.9098
     22 O5          6.0537   -1.5372    7.8852 O.3       1 <0>        -0.6454
     23 C15         6.8472   -1.0810    6.8806 C.ar      1 <0>         0.0577
     24 C16         7.0061   -1.8322    5.7251 C.ar      1 <0>        -0.1264
     25 C17         7.8128   -1.3661    4.7052 C.ar      1 <0>        -0.1019
     26 C18         8.4620   -0.1522    4.8354 C.ar      1 <0>        -0.1009
     27 C19         8.3056    0.5981    5.9862 C.ar      1 <0>        -0.0988
     28 C20         7.4951    0.1392    7.0065 C.ar      1 <0>        -0.0902
     29 C21         4.5215   -3.9926    7.8346 C.2       1 <0>         0.3844
     30 O6          4.9742   -3.2822    8.7098 O.2       1 <0>        -0.4163
     31 C22         4.6065   -5.4903    7.9712 C.3       1 <0>        -0.1477
     32 C23         3.4234   -6.1350    7.2403 C.3       1 <0>         0.1782
     33 H1          3.5641   -7.2148    7.1940 H         1 <0>         0.1409
     34 N3          3.3679   -5.5830    5.8779 N.pl3     1 <0>        -0.6977
     35 S2          1.8819   -5.7561    8.1183 S.3       1 <0>        -0.2534
     36 C24         0.7300   -5.2840    6.7989 C.3       1 <0>        -0.1099
     37 H2          1.3871    1.8552   -0.1814 H         1 <0>         0.0697
     38 H3         -0.1331    1.8823   -1.1069 H         1 <0>         0.0836
     39 H4         -0.1736    1.9169    0.6723 H         1 <0>         0.0698
     40 H5         -0.7328   -0.3409   -0.1869 H         1 <0>         0.0696
     41 H6          0.8279   -0.4026   -1.0406 H         1 <0>         0.0696
     42 H7         -0.0203   -2.2596   -0.6215 H         1 <0>         0.1395
     43 H8          0.0442   -4.6852   -0.3310 H         1 <0>         0.1396
     44 H9          1.0615   -5.7059    1.6221 H         1 <0>         0.1453
     45 H10         2.1613   -0.4816    3.2500 H         1 <0>         0.1695
     46 H11         6.4998   -2.7807    5.6232 H         1 <0>         0.1309
     47 H12         7.9369   -1.9505    3.8054 H         1 <0>         0.1373
     48 H13         9.0925    0.2103    4.0370 H         1 <0>         0.1364
     49 H14         8.8140    1.5457    6.0857 H         1 <0>         0.1410
     50 H15         7.3697    0.7277    7.9033 H         1 <0>         0.1405
     51 H16         5.5404   -5.8429    7.5333 H         1 <0>         0.1284
     52 H17         4.5738   -5.7617    9.0263 H         1 <0>         0.1305
     53 H18         3.3411   -6.1680    5.1046 H         1 <0>         0.4297
     54 H19         1.1228   -4.4179    6.2663 H         1 <0>         0.0718
     55 H20         0.6130   -6.1156    6.1039 H         1 <0>         0.0842
     56 H21        -0.2380   -5.0349    7.2336 H         1 <0>         0.1046
@<TRIPOS>BOND
     1    1    2 1
     2    1   37 1
     3    1   38 1
     4    1   39 1
     5    2    3 1
     6    2   40 1
     7    2   41 1
     8    3    4 1
     9    4    9 ar
    10    4    5 ar
    11    5    6 ar
    12    5   42 1
    13    6    7 ar
    14    6   43 1
    15    7    8 ar
    16    7   44 1
    17    8   13 ar
    18    8    9 ar
    19    9   10 ar
    20   10   11 ar
    21   10   45 1
    22   11   17 1
    23   11   12 ar
    24   12   13 ar
    25   12   14 1
    26   14   34 1
    27   14   15 2
    28   15   16 1
    29   15   29 1
    30   16   17 am
    31   16   19 1
    32   17   18 2
    33   19   20 2
    34   19   21 2
    35   19   22 1
    36   22   23 1
    37   23   28 ar
    38   23   24 ar
    39   24   25 ar
    40   24   46 1
    41   25   26 ar
    42   25   47 1
    43   26   27 ar
    44   26   48 1
    45   27   28 ar
    46   27   49 1
    47   28   50 1
    48   29   30 2
    49   29   31 1
    50   31   32 1
    51   31   51 1
    52   31   52 1
    53   32   33 1
    54   32   34 1
    55   32   35 1
    56   34   53 1
    57   35   36 1
    58   36   54 1
    59   36   55 1
    60   36   56 1
@<TRIPOS>MOLECULE
ZINC57608781
   74    79     0     0     0
SMALL
USER_CHARGES

@<TRIPOS>ATOM
      1 C1         -2.2147   -0.4915    0.4754 C.3       1 <0>        -0.1146
      2 C2         -1.9805   -1.9535    0.1952 C.ar      1 <0>        -0.1218
      3 C3         -1.2969   -2.3268   -0.9275 C.ar      1 <0>        -0.0494
      4 C4         -1.0794   -3.6835   -1.1877 C.ar      1 <0>        -0.1400
      5 C5         -0.3506   -4.1186   -2.3806 C.2       1 <0>        -0.0228
      6 C6         -0.1698   -5.4475   -2.5804 C.2       1 <0>        -0.1723
      7 C7         -0.6775   -6.3816   -1.6520 C.2       1 <0>         0.5279
      8 O1         -0.5037   -7.5714   -1.8510 O.2       1 <0>        -0.4405
      9 N1         -1.3475   -5.9917   -0.5535 N.am      1 <0>        -0.6407
     10 H1         -1.6824   -6.6602    0.0645 H         1 <0>         0.4149
     11 C8         -1.5654   -4.6556   -0.2926 C.ar      1 <0>         0.1992
     12 C9         -2.2587   -4.2518    0.8433 C.ar      1 <0>        -0.1695
     13 C10        -2.4561   -2.9087    1.0828 C.ar      1 <0>        -0.0226
     14 C11        -3.2020   -2.4732    2.3177 C.3       1 <0>        -0.1249
     15 C12         0.5755   -5.9290   -3.7985 C.3       1 <0>         0.2394
     16 H2          0.8641   -5.0737   -4.4095 H         1 <0>         0.0674
     17 C13        -0.3129   -6.8433   -4.6021 C.2       1 <0>         0.1774
     18 N2         -0.6156   -8.0870   -4.3200 N.2       1 <0>        -0.2165
     19 N3         -1.3978   -8.5259   -5.2450 N.2       1 <0>        -0.0785
     20 N4         -1.6018   -7.5944   -6.1099 N.2       1 <0>        -0.0960
     21 N5         -0.9542   -6.5396   -5.7459 N.pl3     1 <0>        -0.3033
     22 C14        -0.9203   -5.2539   -6.4475 C.3       1 <0>         0.1468
     23 C15        -2.3452   -4.7172   -6.5976 C.3       1 <0>        -0.1270
     24 C16        -2.3098   -3.3745   -7.3303 C.3       1 <0>        -0.1145
     25 C17        -1.6882   -3.5655   -8.7152 C.3       1 <0>        -0.1258
     26 C18        -0.2633   -4.1023   -8.5651 C.3       1 <0>        -0.1147
     27 C19        -0.2987   -5.4449   -7.8324 C.3       1 <0>        -0.1288
     28 N6          1.7789   -6.6597   -3.3792 N.3       1 <0>        -0.4905
     29 C20         2.5586   -7.1017   -4.5431 C.3       1 <0>         0.1318
     30 C21         1.9306   -8.3409   -5.1271 C.2       1 <0>         0.0163
     31 C22         1.2754   -8.4129   -6.2997 C.2       1 <0>        -0.2355
     32 C23         0.8559   -9.7543   -6.4529 C.2       1 <0>        -0.2007
     33 C24         1.2798  -10.4219   -5.3647 C.2       1 <0>        -0.0208
     34 O2          1.9352   -9.5620   -4.5679 O.3       1 <0>        -0.1459
     35 C25         2.6004   -5.8454   -2.4737 C.3       1 <0>         0.0465
     36 C26         2.1043   -6.0223   -1.0372 C.3       1 <0>         0.0789
     37 H3          1.1031   -5.6031   -0.9376 H         1 <0>         0.0800
     38 C27         3.0677   -5.3154   -0.0596 C.3       1 <0>        -0.1522
     39 C28         3.1149   -6.3091    1.1329 C.3       1 <0>        -0.1545
     40 C29         2.9892   -7.6640    0.3919 C.3       1 <0>         0.0443
     41 O3          2.0845   -7.4138   -0.6979 O.3       1 <0>        -0.3326
     42 H4         -1.3857   -0.0967    1.0628 H         1 <0>         0.0706
     43 H5         -2.2838    0.0525   -0.4667 H         1 <0>         0.0668
     44 H6         -3.1439   -0.3726    1.0326 H         1 <0>         0.0697
     45 H7         -0.9265   -1.5773   -1.6111 H         1 <0>         0.1330
     46 H8          0.0342   -3.3971   -3.0861 H         1 <0>         0.1403
     47 H9         -2.6369   -4.9876    1.5376 H         1 <0>         0.1333
     48 H10        -4.2672   -2.4105    2.0956 H         1 <0>         0.0781
     49 H11        -3.0392   -3.1984    3.1151 H         1 <0>         0.0710
     50 H12        -2.8389   -1.4959    2.6357 H         1 <0>         0.0753
     51 H13        -0.3229   -4.5437   -5.8758 H         1 <0>         0.1044
     52 H14        -2.9426   -5.4274   -7.1692 H         1 <0>         0.0845
     53 H15        -2.7880   -4.5811   -5.6110 H         1 <0>         0.0702
     54 H16        -3.3249   -2.9921   -7.4373 H         1 <0>         0.0750
     55 H17        -1.7123   -2.6643   -6.7587 H         1 <0>         0.0664
     56 H18        -2.2856   -4.2757   -9.2869 H         1 <0>         0.0683
     57 H19        -1.6630   -2.6089   -9.2372 H         1 <0>         0.0703
     58 H20         0.1796   -4.2383   -9.5517 H         1 <0>         0.0753
     59 H21         0.3341   -3.3920   -7.9935 H         1 <0>         0.0664
     60 H22         0.7164   -5.8273   -7.7254 H         1 <0>         0.0704
     61 H23        -0.8961   -6.1551   -8.4040 H         1 <0>         0.0850
     62 H24         2.5701   -6.3118   -5.2940 H         1 <0>         0.0637
     63 H25         3.5799   -7.3235   -4.2333 H         1 <0>         0.0992
     64 H26         1.1025   -7.6015   -6.9912 H         1 <0>         0.1286
     65 H27         0.3012  -10.1643   -7.2839 H         1 <0>         0.1389
     66 H28         1.1233  -11.4720   -5.1672 H         1 <0>         0.1959
     67 H29         3.6405   -6.1646   -2.5408 H         1 <0>         0.0851
     68 H30         2.5233   -4.7959   -2.7580 H         1 <0>         0.0516
     69 H31         4.0552   -5.1973   -0.5056 H         1 <0>         0.0775
     70 H32         2.6647   -4.3523    0.2537 H         1 <0>         0.0783
     71 H33         4.0635   -6.2390    1.6653 H         1 <0>         0.0812
     72 H34         2.2745   -6.1516    1.8090 H         1 <0>         0.0744
     73 H35         3.9612   -7.9795    0.0128 H         1 <0>         0.0563
     74 H36         2.5775   -8.4226    1.0577 H         1 <0>         0.0813
@<TRIPOS>BOND
     1    1    2 1
     2    1   42 1
     3    1   43 1
     4    1   44 1
     5    2   13 ar
     6    2    3 ar
     7    3    4 ar
     8    3   45 1
     9    4   11 ar
    10    4    5 1
    11    5    6 2
    12    5   46 1
    13    6    7 1
    14    6   15 1
    15    7    8 2
    16    7    9 am
    17    9   10 1
    18    9   11 1
    19   11   12 ar
    20   12   13 ar
    21   12   47 1
    22   13   14 1
    23   14   48 1
    24   14   49 1
    25   14   50 1
    26   15   16 1
    27   15   17 1
    28   15   28 1
    29   17   21 1
    30   17   18 2
    31   18   19 1
    32   19   20 2
    33   20   21 1
    34   21   22 1
    35   22   27 1
    36   22   23 1
    37   22   51 1
    38   23   24 1
    39   23   52 1
    40   23   53 1
    41   24   25 1
    42   24   54 1
    43   24   55 1
    44   25   26 1
    45   25   56 1
    46   25   57 1
    47   26   27 1
    48   26   58 1
    49   26   59 1
    50   27   60 1
    51   27   61 1
    52   28   29 1
    53   28   35 1
    54   29   30 1
    55   29   62 1
    56   29   63 1
    57   30   34 1
    58   30   31 2
    59   31   32 1
    60   31   64 1
    61   32   33 2
    62   32   65 1
    63   33   34 1
    64   33   66 1
    65   35   36 1
    66   35   67 1
    67   35   68 1
    68   36   37 1
    69   36   41 1
    70   36   38 1
    71   38   39 1
    72   38   69 1
    73   38   70 1
    74   39   40 1
    75   39   71 1
    76   39   72 1
    77   40   41 1
    78   40   73 1
    79   40   74 1
@<TRIPOS>MOLECULE
ZINC13205606
   51    53     0     0     0
SMALL
USER_CHARGES
2-[3-[(1R)-2-[[3-chloro-4-(difluoromethoxy)phenyl]amino]-1-methyl-2-oxo-ethyl]sulfanyl-5-(m-tolyl)-1,2,4-triazol-4-yl]acetic acid
@<TRIPOS>ATOM
      1 C1          4.6284   -1.5920   -7.1629 C.3       1 <0>        -0.1097
      2 C2          4.9925   -0.9454   -5.8513 C.ar      1 <0>        -0.0941
      3 C3          6.3150   -0.6505   -5.5706 C.ar      1 <0>        -0.1116
      4 C4          6.6577   -0.0573   -4.3687 C.ar      1 <0>        -0.1111
      5 C5          5.6814    0.2436   -3.4413 C.ar      1 <0>        -0.1095
      6 C6          4.3457   -0.0512   -3.7181 C.ar      1 <0>        -0.0054
      7 C7          4.0073   -0.6541   -4.9308 C.ar      1 <0>        -0.0795
      8 C8          3.2945    0.2681   -2.7288 C.2       1 <0>         0.2253
      9 N1          2.0927   -0.2566   -2.6707 N.2       1 <0>        -0.2772
     10 N2          1.4424    0.2450   -1.6823 N.2       1 <0>        -0.3001
     11 C9          2.1863    1.1283   -1.0544 C.2       1 <0>         0.1555
     12 N3          3.3913    1.1712   -1.6954 N.pl3     1 <0>        -0.4142
     13 C10         4.5463    2.0053   -1.3541 C.3       1 <0>         0.0397
     14 C11         5.3742    1.3113   -0.3034 C.2       1 <0>         0.4555
     15 O1          5.0344    0.2308    0.1172 O.co2     1 <0>        -0.6070
     16 S1          1.7184    2.0749    0.3561 S.3       1 <0>         0.0853
     17 C12         0.0299    1.4687    0.5956 C.3       1 <0>        -0.1142
     18 H1          0.0429    0.3822    0.6828 H         1 <0>         0.1266
     19 C13        -0.8322    1.8740   -0.6017 C.3       1 <0>        -0.1427
     20 C14        -0.5449    2.0667    1.8538 C.2       1 <0>         0.5426
     21 O2         -0.1189    3.1222    2.2731 O.2       1 <0>        -0.4987
     22 N4         -1.5321    1.4288    2.5132 N.am      1 <0>        -0.6648
     23 C15        -2.1299    2.0279    3.6297 C.ar      1 <0>         0.1407
     24 C16        -1.3670    2.8013    4.4947 C.ar      1 <0>        -0.0750
     25 C17        -1.9572    3.3953    5.5927 C.ar      1 <0>        -0.1576
     26 C18        -3.3100    3.2120    5.8377 C.ar      1 <0>         0.0999
     27 C19        -4.0726    2.4349    4.9767 C.ar      1 <0>        -0.0347
     28 C20        -3.4839    1.8439    3.8749 C.ar      1 <0>        -0.1038
     29 Cl1        -5.7656    2.2048    5.2843 Cl        1 <0>        -0.0487
     30 O3         -3.8895    3.7935    6.9219 O.3       1 <0>        -0.3114
     31 C21        -3.0452    4.5798    7.7651 C.3       1 <0>         0.4112
     32 F1         -2.0168    3.7786    8.2729 F         1 <0>        -0.1963
     33 F2         -2.4947    5.6310    7.0240 F         1 <0>        -0.1957
     34 H2          4.6574   -2.6762   -7.0540 H         1 <0>         0.0696
     35 H3          3.6246   -1.2828   -7.4542 H         1 <0>         0.0661
     36 H4          5.3399   -1.2847   -7.9294 H         1 <0>         0.0649
     37 H5          7.0830   -0.8847   -6.2928 H         1 <0>         0.1232
     38 H6          7.6917    0.1703   -4.1557 H         1 <0>         0.1289
     39 H7          5.9503    0.7067   -2.5033 H         1 <0>         0.1373
     40 H8          2.9760   -0.8889   -5.1492 H         1 <0>         0.1332
     41 H9          5.1526    2.1686   -2.2451 H         1 <0>         0.1111
     42 H10         4.2005    2.9646   -0.9691 H         1 <0>         0.1037
     43 H11        -1.8490    1.5089   -0.4574 H         1 <0>         0.0682
     44 H12        -0.8451    2.9604   -0.6888 H         1 <0>         0.0699
     45 H13        -0.4164    1.4414   -1.5117 H         1 <0>         0.0956
     46 H14        -1.8289    0.5548    2.2147 H         1 <0>         0.4176
     47 H15        -0.3127    2.9410    4.3067 H         1 <0>         0.1553
     48 H16        -1.3643    3.9998    6.2632 H         1 <0>         0.1468
     49 H17        -4.0768    1.2389    3.2050 H         1 <0>         0.1486
     50 H18        -3.6313    4.9848    8.5901 H         1 <0>         0.1842
     51 O4          6.4892    1.8935    0.1652 O.co2     1 <0>        -0.7437
@<TRIPOS>BOND
     1    1    2 1
     2    1   34 1
     3    1   35 1
     4    1   36 1
     5    2    7 ar
     6    2    3 ar
     7    3    4 ar
     8    3   37 1
     9    4    5 ar
    10    4   38 1
    11    5    6 ar
    12    5   39 1
    13    6    7 ar
    14    6    8 1
    15    7   40 1
    16    8   12 1
    17    8    9 2
    18    9   10 1
    19   10   11 2
    20   11   12 1
    21   11   16 1
    22   12   13 1
    23   13   14 1
    24   13   41 1
    25   13   42 1
    26   14   15 2
    27   14   51 1
    28   16   17 1
    29   17   18 1
    30   17   19 1
    31   17   20 1
    32   19   43 1
    33   19   44 1
    34   19   45 1
    35   20   21 2
    36   20   22 am
    37   22   23 1
    38   22   46 1
    39   23   28 ar
    40   23   24 ar
    41   24   25 ar
    42   24   47 1
    43   25   26 ar
    44   25   48 1
    45   26   27 ar
    46   26   30 1
    47   27   28 ar
    48   27   29 1
    49   28   49 1
    50   30   31 1
    51   31   32 1
    52   31   33 1
    53   31   50 1
@<TRIPOS>MOLECULE
ZINC13467612
   63    65     0     0     0
SMALL
USER_CHARGES
(1S,6S)-6-[[5-(diethylsulfamoyl)-2-(3-methylphenoxy)phenyl]carbamoyl]cyclohex-3-ene-1-carboxylic acid
@<TRIPOS>ATOM
      1 C1          2.0936   -4.7174   -2.3511 C.3       1 <0>        -0.1745
      2 C2          1.7993   -3.2167   -2.4003 C.3       1 <0>         0.1203
      3 N1          0.5777   -2.9336   -1.6428 N.pl3     1 <0>        -0.9961
      4 C3         -0.7313   -3.0688   -2.2866 C.3       1 <0>         0.1082
      5 C4         -1.0690   -1.7760   -3.0319 C.3       1 <0>        -0.1775
      6 S1          0.6764   -2.4608   -0.0588 S.o2      1 <0>         2.6858
      7 O1          1.9189   -2.9444    0.4327 O.2       1 <0>        -0.9551
      8 O2         -0.5650   -2.7992    0.5442 O.2       1 <0>        -0.9368
      9 C5          0.7798   -0.7019   -0.0456 C.ar      1 <0>        -0.6539
     10 C6          2.0157   -0.0834   -0.0937 C.ar      1 <0>        -0.0427
     11 C7          2.1033    1.2961   -0.0832 C.ar      1 <0>        -0.1227
     12 C8          0.9508    2.0635   -0.0244 C.ar      1 <0>         0.0903
     13 C9         -0.2946    1.4408    0.0241 C.ar      1 <0>         0.1520
     14 C10        -0.3743    0.0559    0.0132 C.ar      1 <0>        -0.0270
     15 N2         -1.4635    2.2113    0.0778 N.am      1 <0>        -0.6767
     16 C11        -2.5836    1.6992    0.6252 C.2       1 <0>         0.5261
     17 O3         -2.5972    0.5512    1.0166 O.2       1 <0>        -0.4620
     18 C12        -3.8191    2.5529    0.7509 C.3       1 <0>        -0.0789
     19 H1         -3.6032    3.4202    1.3747 H         1 <0>         0.0967
     20 C13        -4.2677    3.0161   -0.6368 C.3       1 <0>        -0.0807
     21 C14        -5.6310    3.6384   -0.5583 C.2       1 <0>        -0.1709
     22 C15        -6.4433    3.4824    0.4374 C.2       1 <0>        -0.1366
     23 C16        -6.1314    2.6651    1.6567 C.3       1 <0>        -0.0737
     24 C17        -4.9523    1.7307    1.3778 C.3       1 <0>        -0.1111
     25 H2         -5.2619    0.9469    0.6865 H         1 <0>         0.0754
     26 C18        -4.4773    1.1150    2.6686 C.2       1 <0>         0.4784
     27 O4         -3.3483    1.3111    3.0520 O.co2     1 <0>        -0.6272
     28 O5          1.0352    3.4203   -0.0144 O.3       1 <0>        -0.2589
     29 C19         1.0819    4.0477    1.1899 C.ar      1 <0>         0.1204
     30 C20         1.1439    3.3033    2.3596 C.ar      1 <0>        -0.1863
     31 C21         1.1971    3.9437    3.5822 C.ar      1 <0>        -0.0719
     32 C22         1.1771    5.3252    3.6420 C.ar      1 <0>        -0.1494
     33 C23         1.1097    6.0690    2.4786 C.ar      1 <0>        -0.0550
     34 C24         1.0620    5.4336    1.2528 C.ar      1 <0>        -0.1469
     35 C25         1.0876    7.5743    2.5477 C.3       1 <0>        -0.1122
     36 H3          2.2285   -5.0274   -1.3149 H         1 <0>         0.0640
     37 H4          1.2594   -5.2658   -2.7887 H         1 <0>         0.0593
     38 H5          3.0025   -4.9280   -2.9147 H         1 <0>         0.0671
     39 H6          1.6643   -2.9067   -3.4365 H         1 <0>         0.0794
     40 H7          2.6334   -2.6684   -1.9626 H         1 <0>         0.0805
     41 H8         -0.7050   -3.8989   -2.9926 H         1 <0>         0.0844
     42 H9         -1.4909   -3.2603   -1.5288 H         1 <0>         0.0968
     43 H10        -1.0954   -0.9459   -2.3259 H         1 <0>         0.0576
     44 H11        -0.3094   -1.5844   -3.7898 H         1 <0>         0.0593
     45 H12        -2.0430   -1.8766   -3.5109 H         1 <0>         0.0703
     46 H13         2.9150   -0.6797   -0.1392 H         1 <0>         0.1439
     47 H14         3.0701    1.7761   -0.1212 H         1 <0>         0.1412
     48 H15        -1.3381   -0.4299    0.0510 H         1 <0>         0.1779
     49 H16        -1.4667    3.1133   -0.2790 H         1 <0>         0.4098
     50 H17        -3.5576    3.7488   -1.0201 H         1 <0>         0.0682
     51 H18        -4.2996    2.1600   -1.3107 H         1 <0>         0.0739
     52 H19        -5.9547    4.2546   -1.3842 H         1 <0>         0.1017
     53 H20        -7.4054    3.9704    0.3873 H         1 <0>         0.1011
     54 H21        -5.8775    3.3301    2.4822 H         1 <0>         0.0709
     55 H22        -7.0046    2.0712    1.9267 H         1 <0>         0.0817
     56 H23         1.1546    2.2244    2.3137 H         1 <0>         0.1268
     57 H24         1.2498    3.3649    4.4925 H         1 <0>         0.1276
     58 H25         1.2139    5.8239    4.5993 H         1 <0>         0.1240
     59 H26         1.0097    6.0151    0.3442 H         1 <0>         0.1301
     60 H27         0.0559    7.9199    2.6132 H         1 <0>         0.0732
     61 H28         1.6384    7.9057    3.4279 H         1 <0>         0.0678
     62 H29         1.5525    7.9859    1.6519 H         1 <0>         0.0665
     63 O6         -5.3083    0.3487    3.3925 O.co2     1 <0>        -0.7741
@<TRIPOS>BOND
     1    1    2 1
     2    1   36 1
     3    1   37 1
     4    1   38 1
     5    2    3 1
     6    2   39 1
     7    2   40 1
     8    3    4 1
     9    3    6 1
    10    4    5 1
    11    4   41 1
    12    4   42 1
    13    5   43 1
    14    5   44 1
    15    5   45 1
    16    6    7 2
    17    6    8 2
    18    6    9 1
    19    9   14 ar
    20    9   10 ar
    21   10   11 ar
    22   10   46 1
    23   11   12 ar
    24   11   47 1
    25   12   13 ar
    26   12   28 1
    27   13   14 ar
    28   13   15 1
    29   14   48 1
    30   15   16 am
    31   15   49 1
    32   16   17 2
    33   16   18 1
    34   18   19 1
    35   18   24 1
    36   18   20 1
    37   20   21 1
    38   20   50 1
    39   20   51 1
    40   21   22 2
    41   21   52 1
    42   22   23 1
    43   22   53 1
    44   23   24 1
    45   23   54 1
    46   23   55 1
    47   24   25 1
    48   24   26 1
    49   26   27 2
    50   26   63 1
    51   28   29 1
    52   29   34 ar
    53   29   30 ar
    54   30   31 ar
    55   30   56 1
    56   31   32 ar
    57   31   57 1
    58   32   33 ar
    59   32   58 1
    60   33   34 ar
    61   33   35 1
    62   34   59 1
    63   35   60 1
    64   35   61 1
    65   35   62 1
@<TRIPOS>MOLECULE
ZINC36058902
   61    64     0     0     0
SMALL
USER_CHARGES

@<TRIPOS>ATOM
      1 C1         -1.7947    2.1528   -0.2903 C.3       1 <0>        -0.1501
      2 C2         -1.5145    0.6641   -0.0752 C.3       1 <0>         0.0656
      3 O1         -0.7171    0.1690   -1.1527 O.3       1 <0>        -0.3540
      4 C3         -0.4635   -1.1583   -1.1687 C.2       1 <0>         0.5378
      5 O2         -0.9848   -1.8884   -0.3437 O.2       1 <0>        -0.5488
      6 C4          0.3981   -1.6948   -2.1332 C.2       1 <0>        -0.3900
      7 C5          0.7858   -3.0202   -2.0859 C.2       1 <0>         0.2997
      8 N1          1.6005   -3.5136   -3.0041 N.2       1 <0>        -0.5965
      9 C6          2.1024   -2.8276   -4.0102 C.2       1 <0>         0.3189
     10 N2          1.8429   -1.5047   -4.2362 N.pl3     1 <0>        -0.5133
     11 C7          0.9303   -0.8445   -3.2651 C.3       1 <0>         0.2637
     12 H1          1.4641   -0.0005   -2.8283 H         1 <0>         0.0749
     13 C8         -0.2484   -0.2968   -4.0278 C.ar      1 <0>        -0.0675
     14 C9         -0.5973    1.0344   -3.8956 C.ar      1 <0>        -0.0737
     15 C10        -1.6777    1.5416   -4.5931 C.ar      1 <0>        -0.1735
     16 C11        -2.4134    0.7153   -5.4273 C.ar      1 <0>         0.0960
     17 C12        -2.0621   -0.6245   -5.5607 C.ar      1 <0>         0.0957
     18 C13        -0.9751   -1.1253   -4.8624 C.ar      1 <0>        -0.1395
     19 O3         -2.7811   -1.4394   -6.3783 O.3       1 <0>        -0.3096
     20 C14        -2.4300   -2.8246   -6.3854 C.3       1 <0>         0.0290
     21 O4         -3.4769    1.2126   -6.1138 O.3       1 <0>        -0.3101
     22 C15        -3.7795    2.5967   -5.9277 C.3       1 <0>         0.0293
     23 C16         2.4455   -0.9265   -5.3357 C.2       1 <0>         0.2347
     24 C17         3.2405   -1.7088   -6.0986 C.2       1 <0>        -0.3057
     25 S1          3.1360   -3.2746   -5.2548 S.3       1 <0>         0.1427
     26 C18         2.2296    0.4897   -5.6650 C.2       1 <0>        -0.4668
     27 C19         2.6951    0.9898   -6.8257 C.2       1 <0>         0.5031
     28 O5          3.2331    0.1610   -7.7533 O.3       1 <0>        -0.7046
     29 N3          2.6240    2.3506   -7.0713 N.pl3     1 <0>        -0.7532
     30 C20         3.0271    2.8816   -8.3758 C.3       1 <0>         0.1714
     31 C21         2.7365    4.3829   -8.4273 C.3       1 <0>        -0.1618
     32 C22         1.6683    4.8623   -9.4122 C.3       1 <0>        -0.1795
     33 C23         3.1467    5.1388   -9.6927 C.3       1 <0>        -0.1764
     34 C24         0.2775   -3.9096   -0.9806 C.3       1 <0>        -0.1056
     35 H2         -0.8593    2.7099   -0.2370 H         1 <0>         0.0625
     36 H3         -2.2494    2.2991   -1.2700 H         1 <0>         0.0650
     37 H4         -2.4749    2.5099    0.4830 H         1 <0>         0.0709
     38 H5         -0.9804    0.5271    0.8650 H         1 <0>         0.0572
     39 H6         -2.4574    0.1183   -0.0404 H         1 <0>         0.0599
     40 H7         -0.0246    1.6795   -3.2457 H         1 <0>         0.1236
     41 H8         -1.9485    2.5817   -4.4875 H         1 <0>         0.1295
     42 H9         -0.6980   -2.1639   -4.9671 H         1 <0>         0.1199
     43 H10        -3.0242   -3.3462   -7.1358 H         1 <0>         0.0971
     44 H11        -1.3714   -2.9299   -6.6227 H         1 <0>         0.0535
     45 H12        -2.6267   -3.2544   -5.4032 H         1 <0>         0.0502
     46 H13        -2.9249    3.1999   -6.2344 H         1 <0>         0.0528
     47 H14        -4.6474    2.8632   -6.5308 H         1 <0>         0.0945
     48 H15        -3.9969    2.7829   -4.8760 H         1 <0>         0.0506
     49 H16         3.7950   -1.4518   -6.9890 H         1 <0>         0.2308
     50 H17         1.6976    1.1292   -4.9762 H         1 <0>         0.0885
     51 H18         2.3072    2.9524   -6.3796 H         1 <0>         0.3845
     52 H19         4.0939    2.7128   -8.5229 H         1 <0>         0.0521
     53 H20         2.4673    2.3760   -9.1626 H         1 <0>         0.0533
     54 H21         2.8184    4.9104   -7.4770 H         1 <0>         0.1033
     55 H22         1.1725    4.1081  -10.0234 H         1 <0>         0.0945
     56 H23         1.0471    5.7054   -9.1098 H         1 <0>         0.0899
     57 H24         3.4981    6.1639   -9.5749 H         1 <0>         0.0918
     58 H25         3.6236    4.5667  -10.4884 H         1 <0>         0.0950
     59 H26        -0.7056   -4.2965   -1.2486 H         1 <0>         0.0811
     60 H27         0.9680   -4.7406   -0.8363 H         1 <0>         0.0641
     61 H28         0.2025   -3.3350   -0.0573 H         1 <0>         0.1014
@<TRIPOS>BOND
     1    1    2 1
     2    1   35 1
     3    1   36 1
     4    1   37 1
     5    2    3 1
     6    2   38 1
     7    2   39 1
     8    3    4 1
     9    4    5 2
    10    4    6 1
    11    6   11 1
    12    6    7 2
    13    7    8 1
    14    7   34 1
    15    8    9 2
    16    9   25 1
    17    9   10 1
    18   10   11 1
    19   10   23 1
    20   11   12 1
    21   11   13 1
    22   13   18 ar
    23   13   14 ar
    24   14   15 ar
    25   14   40 1
    26   15   16 ar
    27   15   41 1
    28   16   17 ar
    29   16   21 1
    30   17   18 ar
    31   17   19 1
    32   18   42 1
    33   19   20 1
    34   20   43 1
    35   20   44 1
    36   20   45 1
    37   21   22 1
    38   22   46 1
    39   22   47 1
    40   22   48 1
    41   23   24 2
    42   23   26 1
    43   24   25 1
    44   24   49 1
    45   26   27 2
    46   26   50 1
    47   27   28 1
    48   27   29 1
    49   29   30 1
    50   29   51 1
    51   30   31 1
    52   30   52 1
    53   30   53 1
    54   31   33 1
    55   31   32 1
    56   31   54 1
    57   32   33 1
    58   32   55 1
    59   32   56 1
    60   33   57 1
    61   33   58 1
    62   34   59 1
    63   34   60 1
    64   34   61 1
@<TRIPOS>MOLECULE
ZINC38702034
   57    61     0     0     0
SMALL
USER_CHARGES

@<TRIPOS>ATOM
      1 C1         -0.0187    1.5258    0.0104 C.3       1 <0>        -0.1492
      2 C2          0.0021   -0.0041    0.0020 C.3       1 <0>        -0.1228
      3 C3         -1.4333   -0.5336    0.0129 C.3       1 <0>         0.0607
      4 O1         -1.4139   -1.9625    0.0050 O.3       1 <0>        -0.3220
      5 C4         -2.6163   -2.5959    0.0131 C.ar      1 <0>         0.1367
      6 C5         -3.7906   -1.8573    0.0225 C.ar      1 <0>        -0.1888
      7 C6         -5.0116   -2.5036    0.0302 C.ar      1 <0>        -0.0363
      8 C7         -5.0638   -3.8852    0.0290 C.ar      1 <0>        -0.1013
      9 C8         -3.8948   -4.6236    0.0202 C.ar      1 <0>        -0.0488
     10 C9         -2.6714   -3.9821    0.0062 C.ar      1 <0>        -0.1470
     11 C10        -6.3971   -4.5876    0.0380 C.3       1 <0>         0.2678
     12 H1         -7.1758   -3.9073    0.3828 H         1 <0>         0.0975
     13 C11        -6.7248   -5.0912   -1.3411 C.2       1 <0>        -0.2009
     14 C12        -6.9592   -4.7945   -2.6457 C.2       1 <0>         0.1908
     15 N1         -7.2037   -5.9795   -3.2790 N.pl3     1 <0>        -0.3874
     16 N2         -7.1293   -6.9492   -2.4383 N.2       1 <0>        -0.2279
     17 H2         -7.4041   -6.0752   -4.2232 H         1 <0>         0.4466
     18 C13        -6.8415   -6.4957   -1.2346 C.2       1 <0>        -0.0538
     19 C14        -6.5943   -6.8650    0.1709 C.2       1 <0>         0.6190
     20 O2         -6.6185   -8.0006    0.6040 O.2       1 <0>        -0.5231
     21 N3         -6.3387   -5.7686    0.9072 N.am      1 <0>        -0.5913
     22 C15        -6.0478   -5.7549    2.3429 C.3       1 <0>         0.1735
     23 H3         -5.8674   -4.7316    2.6722 H         1 <0>         0.1217
     24 C16        -4.8087   -6.6190    2.6301 C.3       1 <0>        -0.1507
     25 C17        -4.6832   -6.8722    4.1518 C.3       1 <0>        -0.5686
     26 S1         -6.4297   -6.7846    4.7213 S.o2      1 <0>         2.3724
     27 O3         -6.5683   -5.6939    5.6215 O.2       1 <0>        -0.9362
     28 O4         -6.8504   -8.0810    5.1236 O.2       1 <0>        -0.9347
     29 C18        -7.2489   -6.3552    3.1280 C.3       1 <0>        -0.5964
     30 C19        -6.9515   -3.4491   -3.2610 C.ar      1 <0>        -0.2186
     31 C20        -8.1270   -2.9113   -3.7842 C.ar      1 <0>        -0.0281
     32 C21        -8.1139   -1.6550   -4.3568 C.ar      1 <0>        -0.1737
     33 C22        -6.9371   -0.9268   -4.4137 C.ar      1 <0>        -0.0477
     34 C23        -5.7668   -1.4508   -3.8980 C.ar      1 <0>        -0.2497
     35 C24        -5.7660   -2.7077   -3.3153 C.ar      1 <0>         0.3051
     36 O5         -4.6170   -3.2209   -2.8032 O.3       1 <0>        -0.6647
     37 Cl1        -9.5774   -0.9859   -5.0081 Cl        1 <0>        -0.1253
     38 H4          1.0039    1.9031    0.0027 H         1 <0>         0.0612
     39 H5         -0.5459    1.8868   -0.8726 H         1 <0>         0.0581
     40 H6         -0.5289    1.8773    0.9072 H         1 <0>         0.0563
     41 H7          0.5123   -0.3556   -0.8948 H         1 <0>         0.0719
     42 H8          0.5293   -0.3651    0.8851 H         1 <0>         0.0701
     43 H9         -1.9435   -0.1821    0.9097 H         1 <0>         0.0573
     44 H10        -1.9605   -0.1726   -0.8702 H         1 <0>         0.0620
     45 H11        -3.7503   -0.7781    0.0241 H         1 <0>         0.1170
     46 H12        -5.9261   -1.9291    0.0375 H         1 <0>         0.1146
     47 H13        -3.9383   -5.7027    0.0196 H         1 <0>         0.1119
     48 H14        -1.7587   -4.5592   -0.0052 H         1 <0>         0.1178
     49 H15        -4.9045   -7.5727    2.1112 H         1 <0>         0.1049
     50 H16        -3.9171   -6.1026    2.2744 H         1 <0>         0.1060
     51 H17        -4.2623   -7.8588    4.3460 H         1 <0>         0.1442
     52 H18        -4.0830   -6.0949    4.6248 H         1 <0>         0.1415
     53 H19        -8.0336   -5.6132    3.2759 H         1 <0>         0.1468
     54 H20        -7.6386   -7.2446    2.6327 H         1 <0>         0.1533
     55 H21        -9.0461   -3.4769   -3.7420 H         1 <0>         0.1013
     56 H22        -6.9339    0.0550   -4.8636 H         1 <0>         0.1022
     57 H23        -4.8525   -0.8779   -3.9455 H         1 <0>         0.1049
@<TRIPOS>BOND
     1    1    2 1
     2    1   38 1
     3    1   39 1
     4    1   40 1
     5    2    3 1
     6    2   41 1
     7    2   42 1
     8    3    4 1
     9    3   43 1
    10    3   44 1
    11    4    5 1
    12    5   10 ar
    13    5    6 ar
    14    6    7 ar
    15    6   45 1
    16    7    8 ar
    17    7   46 1
    18    8    9 ar
    19    8   11 1
    20    9   10 ar
    21    9   47 1
    22   10   48 1
    23   11   12 1
    24   11   21 1
    25   11   13 1
    26   13   18 1
    27   13   14 2
    28   14   30 1
    29   14   15 1
    30   15   17 1
    31   15   16 1
    32   16   18 2
    33   18   19 1
    34   19   20 2
    35   19   21 am
    36   21   22 1
    37   22   23 1
    38   22   29 1
    39   22   24 1
    40   24   25 1
    41   24   49 1
    42   24   50 1
    43   25   26 1
    44   25   51 1
    45   25   52 1
    46   26   27 2
    47   26   28 2
    48   26   29 1
    49   29   53 1
    50   29   54 1
    51   30   35 ar
    52   30   31 ar
    53   31   32 ar
    54   31   55 1
    55   32   33 ar
    56   32   37 1
    57   33   34 ar
    58   33   56 1
    59   34   35 ar
    60   34   57 1
    61   35   36 1
@<TRIPOS>MOLECULE
ZINC64978982
   54    56     0     0     0
SMALL
USER_CHARGES

@<TRIPOS>ATOM
      1 C1         -0.1804    1.3072    0.4097 C.3       1 <0>        -0.1484
      2 C2         -0.0998   -0.2100    0.2300 C.3       1 <0>        -0.1402
      3 C3          0.6231   -0.5307   -1.0798 C.3       1 <0>         0.1323
      4 N1          0.7003   -1.9835   -1.2520 N.pl3     1 <0>        -0.3624
      5 C4          1.7372   -2.7709   -0.8972 C.2       1 <0>         0.0855
      6 C5          1.4177   -4.0450   -1.2225 C.2       1 <0>        -0.2578
      7 C6          0.1419   -4.0358   -1.7957 C.2       1 <0>         0.0666
      8 N2         -0.2916   -2.8014   -1.8083 N.2       1 <0>        -0.3086
      9 C7         -0.6070   -5.2405   -2.3045 C.3       1 <0>        -0.0660
     10 C8          3.0211   -2.3134   -0.2544 C.3       1 <0>         0.2283
     11 N3          3.9623   -1.8868   -1.2929 N.pl3     1 <0>        -0.6212
     12 C9          4.0569   -0.4715   -1.6591 C.3       1 <0>         0.1373
     13 C10         4.7614   -2.8203   -1.9276 C.ar      1 <0>         0.3834
     14 C11         5.9895   -3.1947   -1.3525 C.ar      1 <0>        -0.1610
     15 C12         6.7830   -4.1425   -2.0122 C.ar      1 <0>        -0.0415
     16 C13         6.3185   -4.6712   -3.2092 C.ar      1 <0>         0.0633
     17 C14         5.0933   -4.2488   -3.7115 C.ar      1 <0>         0.0823
     18 N4          4.3627   -3.3591   -3.0690 N.ar      1 <0>        -0.4809
     19 N5          7.0782   -5.6216   -3.9046 N.am      1 <0>        -0.6596
     20 C15         7.8274   -6.5130   -3.2259 C.2       1 <0>         0.5489
     21 O1          7.7761   -6.5509   -2.0118 O.2       1 <0>        -0.4987
     22 C16         8.7111   -7.4444   -3.9574 C.ar      1 <0>        -0.1108
     23 C17         8.7766   -7.3995   -5.3514 C.ar      1 <0>        -0.0814
     24 C18         9.6036   -8.2710   -6.0283 C.ar      1 <0>        -0.0980
     25 C19        10.3678   -9.1896   -5.3285 C.ar      1 <0>        -0.0702
     26 C20        10.3069   -9.2394   -3.9459 C.ar      1 <0>        -0.0968
     27 C21         9.4884   -8.3690   -3.2572 C.ar      1 <0>        -0.0514
     28 Br1        11.4987  -10.3815   -6.2647 Br        1 <0>        -0.0462
     29 C22         6.4326   -2.6016   -0.0820 C.2       1 <0>         0.5264
     30 O2          7.5416   -2.8655    0.3625 O.co2     1 <0>        -0.6870
     31 O3          5.6922   -1.8442    0.5307 O.co2     1 <0>        -0.6638
     32 H1          0.8265    1.7237    0.4390 H         1 <0>         0.0599
     33 H2         -0.7298    1.7433   -0.4246 H         1 <0>         0.0556
     34 H3         -0.6954    1.5357    1.3429 H         1 <0>         0.0593
     35 H4          0.4497   -0.6460    1.0643 H         1 <0>         0.0692
     36 H5         -1.1066   -0.6265    0.2007 H         1 <0>         0.0687
     37 H6          0.0736   -0.0947   -1.9142 H         1 <0>         0.0860
     38 H7          1.6299   -0.1142   -1.0506 H         1 <0>         0.0950
     39 H8          2.0384   -4.9151   -1.0675 H         1 <0>         0.1345
     40 H9         -1.2059   -5.6633   -1.4979 H         1 <0>         0.0701
     41 H10        -1.2603   -4.9426   -3.1245 H         1 <0>         0.0661
     42 H11         0.1038   -5.9871   -2.6590 H         1 <0>         0.0724
     43 H12         2.8149   -1.4778    0.4145 H         1 <0>         0.0794
     44 H13         3.4557   -3.1354    0.3145 H         1 <0>         0.0870
     45 H14         3.7321    0.1435   -0.8199 H         1 <0>         0.0592
     46 H15         5.0899   -0.2291   -1.9088 H         1 <0>         0.0495
     47 H16         3.4192   -0.2759   -2.5212 H         1 <0>         0.0204
     48 H17         7.7318   -4.4535   -1.6004 H         1 <0>         0.1466
     49 H18         4.7316   -4.6597   -4.6424 H         1 <0>         0.1450
     50 H19         7.0649   -5.6378   -4.8743 H         1 <0>         0.4059
     51 H20         8.1805   -6.6840   -5.8983 H         1 <0>         0.1369
     52 H21         9.6551   -8.2373   -7.1066 H         1 <0>         0.1399
     53 H22        10.9047   -9.9585   -3.4057 H         1 <0>         0.1413
     54 H23         9.4453   -8.4055   -2.1787 H         1 <0>         0.1496
@<TRIPOS>BOND
     1    1    2 1
     2    1   32 1
     3    1   33 1
     4    1   34 1
     5    2    3 1
     6    2   35 1
     7    2   36 1
     8    3    4 1
     9    3   37 1
    10    3   38 1
    11    4    8 1
    12    4    5 1
    13    5    6 2
    14    5   10 1
    15    6    7 1
    16    6   39 1
    17    7    8 2
    18    7    9 1
    19    9   40 1
    20    9   41 1
    21    9   42 1
    22   10   11 1
    23   10   43 1
    24   10   44 1
    25   11   12 1
    26   11   13 1
    27   12   45 1
    28   12   46 1
    29   12   47 1
    30   13   18 ar
    31   13   14 ar
    32   14   15 ar
    33   14   29 1
    34   15   16 ar
    35   15   48 1
    36   16   17 ar
    37   16   19 1
    38   17   18 ar
    39   17   49 1
    40   19   20 am
    41   19   50 1
    42   20   21 2
    43   20   22 1
    44   22   27 ar
    45   22   23 ar
    46   23   24 ar
    47   23   51 1
    48   24   25 ar
    49   24   52 1
    50   25   26 ar
    51   25   28 1
    52   26   27 ar
    53   26   53 1
    54   27   54 1
    55   29   30 2
    56   29   31 1
@<TRIPOS>MOLECULE
ZINC05619753
   41    42     0     0     0
SMALL
USER_CHARGES
N-[(4-chloro-3-nitro-phenyl)methyleneamino]-2-(3-methylphenoxy)-propanamide
@<TRIPOS>ATOM
      1 C1         -2.4747    0.9797   -0.4325 C.3       1 <0>        -0.1183
      2 C2         -1.2015    1.7512   -0.1982 C.ar      1 <0>        -0.0439
      3 C3         -0.0129    1.0758    0.0101 C.ar      1 <0>        -0.1554
      4 C4          1.1577    1.7806    0.2196 C.ar      1 <0>        -0.0749
      5 C5          1.1418    3.1622    0.2270 C.ar      1 <0>        -0.2189
      6 C6         -0.0502    3.8419    0.0239 C.ar      1 <0>         0.1303
      7 C7         -1.2238    3.1322   -0.1862 C.ar      1 <0>        -0.1475
      8 O1         -0.0685    5.2008    0.0311 O.3       1 <0>        -0.2843
      9 C8          1.1919    5.8661    0.1341 C.3       1 <0>         0.0769
     10 H1          1.9494    5.2943   -0.4020 H         1 <0>         0.1053
     11 C9          1.5884    5.9824    1.6072 C.3       1 <0>        -0.1793
     12 C10         1.0834    7.2437   -0.4672 C.2       1 <0>         0.5358
     13 O2          0.0095    7.6532   -0.8553 O.2       1 <0>        -0.4692
     14 N1          2.1795    8.0207   -0.5738 N.am      1 <0>        -0.5772
     15 N2          2.0786    9.3014   -1.1328 N.2       1 <0>        -0.2110
     16 C11         3.1339   10.0495   -1.2354 C.2       1 <0>         0.1053
     17 C12         3.0277   11.3975   -1.8238 C.ar      1 <0>        -0.0458
     18 C13         1.7934   11.8700   -2.2770 C.ar      1 <0>        -0.0197
     19 C14         1.7001   13.1330   -2.8222 C.ar      1 <0>        -0.1113
     20 C15         2.8284   13.9292   -2.9299 C.ar      1 <0>         0.0253
     21 C16         4.0557   13.4650   -2.4874 C.ar      1 <0>        -0.0435
     22 C17         4.1617   12.2053   -1.9357 C.ar      1 <0>        -0.0169
     23 N3          5.2562   14.3225   -2.6064 N.pl3     1 <0>         0.0256
     24 O3          6.3363   13.9156   -2.2173 O.2       1 <0>        -0.1576
     25 O4          5.1641   15.4351   -3.0934 O.3       1 <0>        -0.1306
     26 Cl1         2.7035   15.5159   -3.6231 Cl        1 <0>         0.0036
     27 H2         -2.9632    0.7862    0.5225 H         1 <0>         0.0757
     28 H3         -3.1403    1.5619   -1.0697 H         1 <0>         0.0703
     29 H4         -2.2415    0.0329   -0.9197 H         1 <0>         0.0708
     30 H5          0.0016   -0.0041    0.0048 H         1 <0>         0.1256
     31 H6          2.0855    1.2509    0.3781 H         1 <0>         0.1271
     32 H7          2.0567    3.7124    0.3903 H         1 <0>         0.1282
     33 H8         -2.1531    3.6591   -0.3445 H         1 <0>         0.1330
     34 H9          2.5498    6.4899    1.6858 H         1 <0>         0.0785
     35 H10         0.8309    6.5542    2.1433 H         1 <0>         0.0797
     36 H11         1.6669    4.9860    2.0421 H         1 <0>         0.0843
     37 H12         3.0382    7.6932   -0.2635 H         1 <0>         0.3920
     38 H13         4.0900    9.6848   -0.8899 H         1 <0>         0.1353
     39 H14         0.9137   11.2486   -2.1974 H         1 <0>         0.1643
     40 H15         0.7459   13.5009   -3.1695 H         1 <0>         0.1639
     41 H16         5.1194   11.8445   -1.5907 H         1 <0>         0.1688
@<TRIPOS>BOND
     1    1    2 1
     2    1   27 1
     3    1   28 1
     4    1   29 1
     5    2    7 ar
     6    2    3 ar
     7    3    4 ar
     8    3   30 1
     9    4    5 ar
    10    4   31 1
    11    5    6 ar
    12    5   32 1
    13    6    7 ar
    14    6    8 1
    15    7   33 1
    16    8    9 1
    17    9   10 1
    18    9   11 1
    19    9   12 1
    20   11   34 1
    21   11   35 1
    22   11   36 1
    23   12   13 2
    24   12   14 am
    25   14   15 1
    26   14   37 1
    27   15   16 2
    28   16   17 1
    29   16   38 1
    30   17   22 ar
    31   17   18 ar
    32   18   19 ar
    33   18   39 1
    34   19   20 ar
    35   19   40 1
    36   20   21 ar
    37   20   26 1
    38   21   22 ar
    39   21   23 1
    40   22   41 1
    41   23   24 2
    42   23   25 1
@<TRIPOS>MOLECULE
ZINC20715147
   50    53     0     0     0
SMALL
USER_CHARGES
(3aR,4S,9bR)-4-(3,4-dimethoxyphenyl)-6-methoxy-9-nitro-3a,4,5,9b-tetrahydro-3H-cyclopenta[c]quinoline
@<TRIPOS>ATOM
      1 C1          2.2526   -0.6690   -0.6305 C.3       1 <0>         0.0222
      2 O1          2.3644    0.6854   -0.1888 O.3       1 <0>        -0.3054
      3 C2          1.2195    1.4182   -0.1488 C.ar      1 <0>         0.1029
      4 C3          0.0153    0.8460   -0.5264 C.ar      1 <0>        -0.1699
      5 C4         -1.1467    1.5940   -0.4905 C.ar      1 <0>        -0.1029
      6 C5         -1.1125    2.9101   -0.0685 C.ar      1 <0>        -0.0996
      7 C6          0.0855    3.4871    0.3095 C.ar      1 <0>        -0.1644
      8 C7          1.2547    2.7444    0.2709 C.ar      1 <0>         0.1033
      9 O2          2.4342    3.3106    0.6421 O.3       1 <0>        -0.3046
     10 C8          2.3948    4.6760    1.0617 C.3       1 <0>         0.0220
     11 C9         -2.3831    3.7193   -0.0259 C.3       1 <0>         0.1905
     12 H1         -2.1518    4.7519   -0.3262 H         1 <0>         0.1034
     13 C10        -2.9860    3.6612    1.3624 C.3       1 <0>        -0.0894
     14 H2         -3.8849    4.2889    1.2725 H         1 <0>         0.1080
     15 C11        -2.1203    4.1182    2.5420 C.3       1 <0>        -0.0872
     16 C12        -2.6762    3.2575    3.6793 C.2       1 <0>        -0.1609
     17 C13        -3.2028    2.1416    3.1867 C.2       1 <0>        -0.1785
     18 C14        -3.0155    2.1412    1.7151 C.3       1 <0>        -0.0280
     19 H3         -2.1605    1.4648    1.5684 H         1 <0>         0.1235
     20 C15        -3.9799    1.5086    0.7887 C.ar      1 <0>        -0.0703
     21 C16        -4.7531    0.4307    1.1709 C.ar      1 <0>        -0.0175
     22 C17        -5.6363   -0.1513    0.2825 C.ar      1 <0>        -0.0791
     23 C18        -5.7454    0.3503   -1.0020 C.ar      1 <0>        -0.1667
     24 C19        -4.9808    1.4317   -1.3923 C.ar      1 <0>         0.0949
     25 C20        -4.0868    2.0354   -0.4990 C.ar      1 <0>         0.2112
     26 N1         -3.3730    3.1481   -0.9532 N.pl3     1 <0>        -0.7299
     27 O3         -5.0963    1.9154   -2.6582 O.3       1 <0>        -0.3124
     28 C21        -6.0243    1.2564   -3.5223 C.3       1 <0>         0.0227
     29 N2         -4.6343   -0.1064    2.5449 N.pl3     1 <0>         0.0278
     30 O4         -3.5382   -0.3840    2.9976 O.2       1 <0>        -0.1443
     31 O5         -5.6327   -0.2709    3.2229 O.3       1 <0>        -0.1550
     32 H4          3.2452   -1.1429   -0.6147 H         1 <0>         0.1035
     33 H5          1.8531   -0.6887   -1.6552 H         1 <0>         0.0549
     34 H6          1.5735   -1.2179    0.0384 H         1 <0>         0.0570
     35 H7         -0.0148   -0.1830   -0.8529 H         1 <0>         0.1341
     36 H8         -2.0840    1.1481   -0.7890 H         1 <0>         0.1242
     37 H9          0.1101    4.5165    0.6353 H         1 <0>         0.1371
     38 H10         3.4088    5.0059    1.3319 H         1 <0>         0.1032
     39 H11         1.7330    4.7722    1.9350 H         1 <0>         0.0563
     40 H12         2.0123    5.3008    0.2412 H         1 <0>         0.0554
     41 H13        -1.0621    3.9158    2.3203 H         1 <0>         0.0877
     42 H14        -2.2611    5.1971    2.7039 H         1 <0>         0.0758
     43 H15        -2.6893    3.4397    4.7640 H         1 <0>         0.1356
     44 H16        -3.6743    1.4116    3.8611 H         1 <0>         0.1390
     45 H17        -6.2384   -0.9939    0.5891 H         1 <0>         0.1444
     46 H18        -6.4309   -0.1050   -1.7015 H         1 <0>         0.1489
     47 H19        -3.5197    3.5976   -1.9464 H         1 <0>         0.4479
     48 H20        -6.0181    1.7449   -4.5079 H         1 <0>         0.1074
     49 H21        -7.0339    1.3160   -3.0898 H         1 <0>         0.0609
     50 H22        -5.7351    0.2010   -3.6343 H         1 <0>         0.0602
@<TRIPOS>BOND
     1    1    2 1
     2    1   32 1
     3    1   33 1
     4    1   34 1
     5    2    3 1
     6    3    8 ar
     7    3    4 ar
     8    4    5 ar
     9    4   35 1
    10    5    6 ar
    11    5   36 1
    12    6    7 ar
    13    6   11 1
    14    7    8 ar
    15    7   37 1
    16    8    9 1
    17    9   10 1
    18   10   38 1
    19   10   39 1
    20   10   40 1
    21   11   12 1
    22   11   26 1
    23   11   13 1
    24   13   14 1
    25   13   18 1
    26   13   15 1
    27   15   16 1
    28   15   41 1
    29   15   42 1
    30   16   17 2
    31   16   43 1
    32   17   18 1
    33   17   44 1
    34   18   19 1
    35   18   20 1
    36   20   25 ar
    37   20   21 ar
    38   21   22 ar
    39   21   29 1
    40   22   23 ar
    41   22   45 1
    42   23   24 ar
    43   23   46 1
    44   24   25 ar
    45   24   27 1
    46   25   26 1
    47   26   47 1
    48   27   28 1
    49   28   48 1
    50   28   49 1
    51   28   50 1
    52   29   30 2
    53   29   31 1
@<TRIPOS>MOLECULE
ZINC40902792
   35    36     0     0     0
SMALL
USER_CHARGES

@<TRIPOS>ATOM
      1 C1         -0.0167    1.3793    0.0096 C.ar      1 <0>        -0.1166
      2 C2          1.1666    2.0885    0.0021 C.ar      1 <0>        -0.0309
      3 C3          2.3854    1.4066   -0.0132 C.ar      1 <0>        -0.0509
      4 C4          2.3967    0.0096   -0.0208 C.ar      1 <0>        -0.0282
      5 C5          1.2061   -0.6863   -0.0132 C.ar      1 <0>        -0.0510
      6 C6          0.0021   -0.0041    0.0020 C.ar      1 <0>        -0.0404
      7 N1          1.2159   -2.1664   -0.0213 N.pl3     1 <0>         0.0325
      8 O1          2.2669   -2.7638   -0.0345 O.2       1 <0>        -0.1550
      9 O2          0.1730   -2.7779   -0.0146 O.3       1 <0>        -0.1523
     10 C7          3.6546    2.1579   -0.0218 C.2       1 <0>         0.1100
     11 N2          3.6406    3.4553   -0.0151 N.2       1 <0>        -0.2145
     12 N3          4.8462    4.1689   -0.0232 N.am      1 <0>        -0.5794
     13 C8          4.8316    5.5166   -0.0163 C.2       1 <0>         0.5339
     14 O3          3.7746    6.1117   -0.0030 O.2       1 <0>        -0.4661
     15 C9          6.1284    6.2842   -0.0250 C.3       1 <0>         0.0445
     16 O4          5.8522    7.6862   -0.0152 O.3       1 <0>        -0.2715
     17 C10         6.9211    8.5258   -0.0214 C.ar      1 <0>         0.1503
     18 C11         8.2086    8.0109   -0.0424 C.ar      1 <0>        -0.1942
     19 C12         9.2943    8.8670   -0.0491 C.ar      1 <0>         0.0075
     20 C13         9.0969   10.2367   -0.0349 C.ar      1 <0>        -0.1317
     21 C14         7.8144   10.7522   -0.0140 C.ar      1 <0>        -0.0568
     22 C15         6.7256    9.9002   -0.0126 C.ar      1 <0>        -0.0626
     23 Cl1         5.1153   10.5484    0.0070 Cl        1 <0>        -0.0372
     24 Cl2        10.9063    8.2233   -0.0747 Cl        1 <0>        -0.0514
     25 H1         -0.9599    1.9052    0.0260 H         1 <0>         0.1546
     26 H2          1.1505    3.1683    0.0077 H         1 <0>         0.1555
     27 H3          3.3355   -0.5240   -0.0330 H         1 <0>         0.1601
     28 H4         -0.9273   -0.5542    0.0083 H         1 <0>         0.1579
     29 H5          4.5956    1.6280   -0.0336 H         1 <0>         0.1332
     30 H6          5.6914    3.6931   -0.0338 H         1 <0>         0.3921
     31 H7          6.7115    6.0226    0.8580 H         1 <0>         0.1046
     32 H8          6.6941    6.0316   -0.9218 H         1 <0>         0.1045
     33 H9          8.3632    6.9420   -0.0531 H         1 <0>         0.1475
     34 H10         9.9461   10.9039   -0.0399 H         1 <0>         0.1480
     35 H11         7.6629   11.8215   -0.0030 H         1 <0>         0.1538
@<TRIPOS>BOND
     1    1    6 ar
     2    1    2 ar
     3    1   25 1
     4    2    3 ar
     5    2   26 1
     6    3    4 ar
     7    3   10 1
     8    4    5 ar
     9    4   27 1
    10    5    6 ar
    11    5    7 1
    12    6   28 1
    13    7    8 2
    14    7    9 1
    15   10   11 2
    16   10   29 1
    17   11   12 1
    18   12   13 am
    19   12   30 1
    20   13   14 2
    21   13   15 1
    22   15   16 1
    23   15   31 1
    24   15   32 1
    25   16   17 1
    26   17   22 ar
    27   17   18 ar
    28   18   19 ar
    29   18   33 1
    30   19   20 ar
    31   19   24 1
    32   20   21 ar
    33   20   34 1
    34   21   22 ar
    35   21   35 1
    36   22   23 1
@<TRIPOS>MOLECULE
ZINC59279926
   47    49     0     0     0
SMALL
USER_CHARGES

@<TRIPOS>ATOM
      1 C1         -0.0187    1.5258    0.0104 C.3       1 <0>        -0.1416
      2 C2          0.0021   -0.0041    0.0020 C.3       1 <0>        -0.0738
      3 C3          0.7421   -0.5109    1.2415 C.3       1 <0>        -0.1510
      4 C4         -1.4333   -0.5336    0.0129 C.3       1 <0>        -0.1340
      5 C5          0.7182   -0.4975   -1.2568 C.3       1 <0>         0.2432
      6 H1          0.1910   -0.1364   -2.1398 H         1 <0>         0.1120
      7 C6          2.1320    0.0241   -1.2675 C.2       1 <0>        -0.1567
      8 C7          2.6460    1.0833   -1.9393 C.2       1 <0>        -0.1397
      9 C8          3.9884    1.3804   -1.7963 C.2       1 <0>        -0.1575
     10 C9          4.7511    0.6039   -0.9884 C.2       1 <0>        -0.1694
     11 S1          3.5628   -0.5878   -0.3925 S.3       1 <0>         0.0494
     12 N1          0.7381   -1.9623   -1.2648 N.am      1 <0>        -0.7100
     13 C10        -0.3152   -2.6479   -1.7518 C.2       1 <0>         0.6086
     14 O1         -1.2818   -2.0507   -2.1843 O.2       1 <0>        -0.5149
     15 C11        -0.2952   -4.1244   -1.7599 C.2       1 <0>         0.0052
     16 C12        -1.3177   -4.9764   -2.2411 C.2       1 <0>        -0.1586
     17 C13        -0.8622   -6.2361   -2.0465 C.2       1 <0>        -0.0124
     18 N2          0.3679   -6.1334   -1.4788 N.pl3     1 <0>        -0.2396
     19 N3          0.6811   -4.8969   -1.3255 N.2       1 <0>        -0.2588
     20 C14         1.1786   -7.2177   -1.1181 C.ar      1 <0>         0.1452
     21 C15         0.7422   -8.5172   -1.3406 C.ar      1 <0>        -0.0794
     22 C16         1.5436   -9.5838   -0.9840 C.ar      1 <0>        -0.0873
     23 C17         2.7797   -9.3589   -0.4057 C.ar      1 <0>        -0.0565
     24 C18         3.2168   -8.0663   -0.1825 C.ar      1 <0>        -0.0258
     25 C19         2.4224   -6.9951   -0.5427 C.ar      1 <0>        -0.0528
     26 N4          4.5401   -7.8300    0.4371 N.pl3     1 <0>         0.0299
     27 O2          5.2382   -8.7670    0.7476 O.2       1 <0>        -0.1448
     28 O3          4.9230   -6.7000    0.6325 O.3       1 <0>        -0.1450
     29 H2          1.0039    1.9031    0.0027 H         1 <0>         0.0595
     30 H3         -0.5459    1.8868   -0.8726 H         1 <0>         0.0583
     31 H4         -0.5289    1.8773    0.9072 H         1 <0>         0.0610
     32 H5          0.2319   -0.1594    2.1383 H         1 <0>         0.0602
     33 H6          0.7568   -1.6008    1.2356 H         1 <0>         0.0542
     34 H7          1.7647   -0.1336    1.2338 H         1 <0>         0.0640
     35 H8         -1.9605   -0.1726   -0.8702 H         1 <0>         0.0664
     36 H9         -1.4185   -1.6235    0.0069 H         1 <0>         0.0530
     37 H10        -1.9435   -0.1821    0.9097 H         1 <0>         0.0528
     38 H11         2.0163    1.6858   -2.5771 H         1 <0>         0.1350
     39 H12         4.4231    2.2185   -2.3206 H         1 <0>         0.1359
     40 H13         5.8036    0.6869   -0.7611 H         1 <0>         0.1870
     41 H14         1.5093   -2.4388   -0.9197 H         1 <0>         0.4074
     42 H15        -2.2633   -4.6831   -2.6727 H         1 <0>         0.1753
     43 H16        -1.3794   -7.1509   -2.2954 H         1 <0>         0.1920
     44 H17        -0.2231   -8.6935   -1.7918 H         1 <0>         0.1556
     45 H18         1.2046  -10.5946   -1.1565 H         1 <0>         0.1638
     46 H19         3.4046  -10.1947   -0.1277 H         1 <0>         0.1641
     47 H20         2.7666   -5.9857   -0.3729 H         1 <0>         0.1705
@<TRIPOS>BOND
     1    1    2 1
     2    1   29 1
     3    1   30 1
     4    1   31 1
     5    2    3 1
     6    2    4 1
     7    2    5 1
     8    3   32 1
     9    3   33 1
    10    3   34 1
    11    4   35 1
    12    4   36 1
    13    4   37 1
    14    5    6 1
    15    5    7 1
    16    5   12 1
    17    7   11 1
    18    7    8 2
    19    8    9 1
    20    8   38 1
    21    9   10 2
    22    9   39 1
    23   10   11 1
    24   10   40 1
    25   12   13 am
    26   12   41 1
    27   13   14 2
    28   13   15 1
    29   15   19 2
    30   15   16 1
    31   16   17 2
    32   16   42 1
    33   17   18 1
    34   17   43 1
    35   18   19 1
    36   18   20 1
    37   20   25 ar
    38   20   21 ar
    39   21   22 ar
    40   21   44 1
    41   22   23 ar
    42   22   45 1
    43   23   24 ar
    44   23   46 1
    45   24   25 ar
    46   24   26 1
    47   25   47 1
    48   26   27 2
    49   26   28 1
@<TRIPOS>MOLECULE
ZINC67023320
   43    44     0     0     0
SMALL
USER_CHARGES

@<TRIPOS>ATOM
      1 C1          0.9414   -1.9525    3.4415 C.3       1 <0>         0.0916
      2 N1          0.5776   -2.0393    2.0251 N.am      1 <0>        -0.6041
      3 C2          1.5826   -1.7728    0.9930 C.3       1 <0>         0.0730
      4 C3         -0.6817   -2.3644    1.6715 C.2       1 <0>         0.5045
      5 O1         -1.5159   -2.5857    2.5282 O.2       1 <0>        -0.5153
      6 S1         -1.1193   -2.4689   -0.0321 S.3       1 <0>        -0.0501
      7 C4         -2.7809   -3.0548   -0.0103 C.ar      1 <0>        -0.1057
      8 C5         -3.8370   -2.1541   -0.0790 C.ar      1 <0>        -0.0688
      9 C6         -5.1399   -2.6125   -0.0615 C.ar      1 <0>        -0.1082
     10 C7         -5.3978   -3.9673    0.0240 C.ar      1 <0>        -0.1085
     11 C8         -4.3465   -4.8731    0.0931 C.ar      1 <0>         0.1318
     12 C9         -3.0362   -4.4161    0.0699 C.ar      1 <0>        -0.0580
     13 N2         -4.6082   -6.2438    0.1800 N.am      1 <0>        -0.6659
     14 C10        -3.8025   -7.0386    0.9117 C.2       1 <0>         0.5444
     15 O2         -2.8002   -6.5796    1.4276 O.2       1 <0>        -0.5134
     16 C11        -4.1327   -8.4541    1.0860 C.2       1 <0>        -0.1873
     17 C12        -3.3266   -9.2492    1.8180 C.2       1 <0>        -0.0281
     18 C13        -3.6587  -10.6725    1.9933 C.ar      1 <0>        -0.0215
     19 C14        -4.8062  -11.2050    1.3973 C.ar      1 <0>        -0.1051
     20 C15        -5.1102  -12.5394    1.5657 C.ar      1 <0>        -0.0532
     21 C16        -4.2831  -13.3512    2.3222 C.ar      1 <0>        -0.0430
     22 C17        -3.1458  -12.8315    2.9156 C.ar      1 <0>        -0.0535
     23 C18        -2.8251  -11.5005    2.7518 C.ar      1 <0>        -0.0944
     24 N3         -4.6167  -14.7825    2.4980 N.pl3     1 <0>         0.0303
     25 O3         -5.6096  -15.2397    1.9814 O.2       1 <0>        -0.1544
     26 O4         -3.8964  -15.4945    3.1582 O.3       1 <0>        -0.1536
     27 H1          1.9930   -1.6799    3.5304 H         1 <0>         0.0821
     28 H2          0.3273   -1.1951    3.9286 H         1 <0>         0.0642
     29 H3          0.7746   -2.9179    3.9193 H         1 <0>         0.0642
     30 H4          2.0901   -2.7014    0.7316 H         1 <0>         0.0667
     31 H5          1.0949   -1.3638    0.1081 H         1 <0>         0.0781
     32 H6          2.3104   -1.0550    1.3713 H         1 <0>         0.0824
     33 H7         -3.6388   -1.0945   -0.1459 H         1 <0>         0.1351
     34 H8         -5.9589   -1.9104   -0.1143 H         1 <0>         0.1377
     35 H9         -6.4176   -4.3225    0.0376 H         1 <0>         0.1338
     36 H10        -2.2172   -5.1184    0.1189 H         1 <0>         0.1470
     37 H11        -5.3697   -6.6227   -0.2863 H         1 <0>         0.4149
     38 H12        -5.0220   -8.8614    0.6282 H         1 <0>         0.1382
     39 H13        -2.4373   -8.8419    2.2758 H         1 <0>         0.1482
     40 H14        -5.4528  -10.5727    0.8070 H         1 <0>         0.1516
     41 H15        -5.9963  -12.9520    1.1064 H         1 <0>         0.1584
     42 H16        -2.5054  -13.4712    3.5048 H         1 <0>         0.1591
     43 H17        -1.9350  -11.0974    3.2117 H         1 <0>         0.1548
@<TRIPOS>BOND
     1    1    2 1
     2    1   27 1
     3    1   28 1
     4    1   29 1
     5    2    3 1
     6    2    4 am
     7    3   30 1
     8    3   31 1
     9    3   32 1
    10    4    5 2
    11    4    6 1
    12    6    7 1
    13    7   12 ar
    14    7    8 ar
    15    8    9 ar
    16    8   33 1
    17    9   10 ar
    18    9   34 1
    19   10   11 ar
    20   10   35 1
    21   11   12 ar
    22   11   13 1
    23   12   36 1
    24   13   14 am
    25   13   37 1
    26   14   15 2
    27   14   16 1
    28   16   17 2
    29   16   38 1
    30   17   18 1
    31   17   39 1
    32   18   23 ar
    33   18   19 ar
    34   19   20 ar
    35   19   40 1
    36   20   21 ar
    37   20   41 1
    38   21   22 ar
    39   21   24 1
    40   22   23 ar
    41   22   42 1
    42   23   43 1
    43   24   25 2
    44   24   26 1
@<TRIPOS>MOLECULE
ZINC07706559
   47    49     0     0     0
SMALL
USER_CHARGES
N-[1-(4-ethylphenyl)ethyl]-2-(5-nitro-1,3-dioxo-isoindolin-2-yl)-acetamide
@<TRIPOS>ATOM
      1 C1         -0.0407   -3.3009    7.6263 C.3       1 <0>        -0.1475
      2 C2          0.2172   -1.8576    8.0638 C.3       1 <0>        -0.0884
      3 C3         -0.0812   -0.9246    6.9185 C.ar      1 <0>        -0.0769
      4 C4         -1.3531   -0.4060    6.7628 C.ar      1 <0>        -0.1123
      5 C5         -1.6268    0.4494    5.7120 C.ar      1 <0>        -0.1021
      6 C6         -0.6287    0.7862    4.8169 C.ar      1 <0>        -0.1004
      7 C7          0.6418    0.2634    4.9696 C.ar      1 <0>        -0.1114
      8 C8          0.9169   -0.5878    6.0234 C.ar      1 <0>        -0.1130
      9 C9         -0.9273    1.7184    3.6711 C.3       1 <0>         0.1861
     10 H1         -2.0023    1.7415    3.4921 H         1 <0>         0.0978
     11 C10        -0.4377    3.1259    4.0178 C.3       1 <0>        -0.1588
     12 N1         -0.2416    1.2460    2.4658 N.am      1 <0>        -0.7179
     13 C11        -0.7181    1.5718    1.2479 C.2       1 <0>         0.5028
     14 O1         -1.7145    2.2562    1.1498 O.2       1 <0>        -0.5247
     15 C12        -0.0127    1.0858    0.0080 C.3       1 <0>         0.0915
     16 N2         -0.7213    1.5711   -1.1789 N.am      1 <0>        -0.5578
     17 C13        -1.7135    0.9064   -1.7978 C.2       1 <0>         0.5800
     18 O2         -2.1567   -0.1748   -1.4668 O.2       1 <0>        -0.4391
     19 C14        -2.1761    1.7134   -2.9466 C.ar      1 <0>        -0.0845
     20 C15        -3.1481    1.5439   -3.9195 C.ar      1 <0>        -0.0420
     21 C16        -3.3286    2.5192   -4.8878 C.ar      1 <0>        -0.0247
     22 C17        -2.5459    3.6586   -4.8892 C.ar      1 <0>        -0.0255
     23 C18        -1.5693    3.8414   -3.9226 C.ar      1 <0>         0.0152
     24 C19        -1.3780    2.8751   -2.9480 C.ar      1 <0>        -0.1337
     25 C20        -0.4614    2.7375   -1.7966 C.2       1 <0>         0.5862
     26 O3          0.3843    3.5430   -1.4636 O.2       1 <0>        -0.4404
     27 N3         -2.7517    4.6903   -5.9304 N.pl3     1 <0>         0.0218
     28 O4         -3.6083    4.5337   -6.7820 O.2       1 <0>        -0.1394
     29 O5         -2.0644    5.6959   -5.9355 O.3       1 <0>        -0.1400
     30 H2         -1.0842   -3.4101    7.3311 H         1 <0>         0.0559
     31 H3          0.6034   -3.5450    6.7816 H         1 <0>         0.0557
     32 H4          0.1751   -3.9757    8.4547 H         1 <0>         0.0597
     33 H5          1.2607   -1.7483    8.3591 H         1 <0>         0.0730
     34 H6         -0.4269   -1.6134    8.9086 H         1 <0>         0.0731
     35 H7         -2.1330   -0.6694    7.4620 H         1 <0>         0.1247
     36 H8         -2.6206    0.8543    5.5902 H         1 <0>         0.1248
     37 H9          1.4205    0.5231    4.2677 H         1 <0>         0.1202
     38 H10         1.9105   -0.9933    6.1448 H         1 <0>         0.1241
     39 H11        -0.6536    3.8001    3.1891 H         1 <0>         0.0652
     40 H12        -0.9479    3.4774    4.9146 H         1 <0>         0.0707
     41 H13         0.6373    3.1028    4.1968 H         1 <0>         0.0611
     42 H14         0.5554    0.6986    2.5442 H         1 <0>         0.4029
     43 H15         0.0021   -0.0041    0.0020 H         1 <0>         0.1336
     44 H16         1.0099    1.4631    0.0003 H         1 <0>         0.1338
     45 H17        -3.7628    0.6559   -3.9231 H         1 <0>         0.1706
     46 H18        -4.0857    2.3878   -5.6467 H         1 <0>         0.1758
     47 H19        -0.9608    4.7336   -3.9286 H         1 <0>         0.1739
@<TRIPOS>BOND
     1    1    2 1
     2    1   30 1
     3    1   31 1
     4    1   32 1
     5    2    3 1
     6    2   33 1
     7    2   34 1
     8    3    8 ar
     9    3    4 ar
    10    4    5 ar
    11    4   35 1
    12    5    6 ar
    13    5   36 1
    14    6    7 ar
    15    6    9 1
    16    7    8 ar
    17    7   37 1
    18    8   38 1
    19    9   10 1
    20    9   11 1
    21    9   12 1
    22   11   39 1
    23   11   40 1
    24   11   41 1
    25   12   13 am
    26   12   42 1
    27   13   14 2
    28   13   15 1
    29   15   16 1
    30   15   43 1
    31   15   44 1
    32   16   25 am
    33   16   17 am
    34   17   18 2
    35   17   19 1
    36   19   24 ar
    37   19   20 ar
    38   20   21 ar
    39   20   45 1
    40   21   22 ar
    41   21   46 1
    42   22   23 ar
    43   22   27 1
    44   23   24 ar
    45   23   47 1
    46   24   25 1
    47   25   26 2
    48   27   28 2
    49   27   29 1
@<TRIPOS>MOLECULE
ZINC16085302
   48    49     0     0     0
SMALL
USER_CHARGES
N-(2,3-dimethylphenyl)-2-[methyl-(2-methyl-5-nitro-phenyl)sulfonyl-amino]acetamide
@<TRIPOS>ATOM
      1 C1          3.4268   -0.2821    1.6395 C.3       1 <0>        -0.1180
      2 C2          2.2769    0.4042    0.9482 C.ar      1 <0>        -0.0657
      3 C3          1.2508   -0.3466    0.4038 C.ar      1 <0>        -0.1310
      4 C4          0.1943    0.2792   -0.2316 C.ar      1 <0>        -0.0996
      5 C5          0.1600    1.6570   -0.3238 C.ar      1 <0>        -0.1306
      6 C6          1.1884    2.4136    0.2221 C.ar      1 <0>         0.1491
      7 C7          2.2485    1.7819    0.8594 C.ar      1 <0>        -0.1165
      8 C8          3.3665    2.5992    1.4538 C.3       1 <0>        -0.1184
      9 N1          1.1569    3.8095    0.1300 N.am      1 <0>        -0.6639
     10 C9         -0.0202    4.4486   -0.0196 C.2       1 <0>         0.4867
     11 O1         -1.0591    3.8242    0.0239 O.2       1 <0>        -0.5059
     12 C10        -0.0456    5.9390   -0.2410 C.3       1 <0>         0.0928
     13 N2         -1.4337    6.4071   -0.2549 N.pl3     1 <0>        -0.9777
     14 C11        -2.1439    6.6310    1.0067 C.3       1 <0>         0.0859
     15 S1         -2.2000    6.6831   -1.6967 S.o2      1 <0>         2.6951
     16 O2         -3.1642    7.6988   -1.4563 O.2       1 <0>        -0.9328
     17 O3         -1.1818    6.8164   -2.6789 O.2       1 <0>        -0.9447
     18 C12        -3.0981    5.2210   -2.0976 C.ar      1 <0>        -0.6788
     19 C13        -2.5019    4.2292   -2.8542 C.ar      1 <0>         0.0613
     20 C14        -3.2050    3.0807   -3.1654 C.ar      1 <0>        -0.0691
     21 C15        -4.5074    2.9274   -2.7274 C.ar      1 <0>         0.0024
     22 C16        -5.1049    3.9210   -1.9751 C.ar      1 <0>        -0.1381
     23 C17        -4.4003    5.0682   -1.6605 C.ar      1 <0>         0.0721
     24 C18        -5.0520    6.1518   -0.8407 C.3       1 <0>        -0.1580
     25 N3         -2.5652    2.0168   -3.9714 N.pl3     1 <0>         0.0297
     26 O4         -3.1861    1.0063   -4.2488 O.2       1 <0>        -0.1542
     27 O5         -1.4179    2.1518   -4.3573 O.3       1 <0>        -0.1533
     28 H1          4.2120   -0.4949    0.9141 H         1 <0>         0.0733
     29 H2          3.8206    0.3675    2.4212 H         1 <0>         0.0705
     30 H3          3.0794   -1.2151    2.0832 H         1 <0>         0.0677
     31 H4          1.2751   -1.4240    0.4749 H         1 <0>         0.1235
     32 H5         -0.6052   -0.3099   -0.6560 H         1 <0>         0.1225
     33 H6         -0.6635    2.1450   -0.8239 H         1 <0>         0.1374
     34 H7          4.1445    2.7493    0.7053 H         1 <0>         0.0732
     35 H8          2.9790    3.5664    1.7739 H         1 <0>         0.0609
     36 H9          3.7846    2.0732    2.3120 H         1 <0>         0.0769
     37 H10         1.9823    4.3171    0.1739 H         1 <0>         0.4136
     38 H11         0.4971    6.4351    0.5637 H         1 <0>         0.1248
     39 H12         0.4262    6.1727   -1.1954 H         1 <0>         0.1344
     40 H13        -2.0696    7.6825    1.2839 H         1 <0>         0.0731
     41 H14        -3.1929    6.3603    0.8862 H         1 <0>         0.0755
     42 H15        -1.6978    6.0167    1.7888 H         1 <0>         0.0809
     43 H16        -1.4858    4.3506   -3.1995 H         1 <0>         0.1618
     44 H17        -5.0579    2.0314   -2.9734 H         1 <0>         0.1618
     45 H18        -6.1224    3.8014   -1.6332 H         1 <0>         0.1579
     46 H19        -5.5560    6.8554   -1.5034 H         1 <0>         0.1082
     47 H20        -5.7798    5.7063   -0.1626 H         1 <0>         0.0873
     48 H21        -4.2916    6.6775   -0.2632 H         1 <0>         0.0960
@<TRIPOS>BOND
     1    1    2 1
     2    1   28 1
     3    1   29 1
     4    1   30 1
     5    2    7 ar
     6    2    3 ar
     7    3    4 ar
     8    3   31 1
     9    4    5 ar
    10    4   32 1
    11    5    6 ar
    12    5   33 1
    13    6    7 ar
    14    6    9 1
    15    7    8 1
    16    8   34 1
    17    8   35 1
    18    8   36 1
    19    9   10 am
    20    9   37 1
    21   10   11 2
    22   10   12 1
    23   12   13 1
    24   12   38 1
    25   12   39 1
    26   13   14 1
    27   13   15 1
    28   14   40 1
    29   14   41 1
    30   14   42 1
    31   15   16 2
    32   15   17 2
    33   15   18 1
    34   18   23 ar
    35   18   19 ar
    36   19   20 ar
    37   19   43 1
    38   20   21 ar
    39   20   25 1
    40   21   22 ar
    41   21   44 1
    42   22   23 ar
    43   22   45 1
    44   23   24 1
    45   24   46 1
    46   24   47 1
    47   24   48 1
    48   25   26 2
    49   25   27 1
@<TRIPOS>MOLECULE
ZINC38926315
   38    40     0     0     0
SMALL
USER_CHARGES

@<TRIPOS>ATOM
      1 C1         -0.0169    1.3926    0.0097 C.ar      1 <0>        -0.0888
      2 C2          1.1701    2.0952    0.0021 C.ar      1 <0>        -0.0569
      3 C3          2.3776    1.4197   -0.0135 C.ar      1 <0>        -0.0365
      4 C4          2.4040    0.0362   -0.0212 C.ar      1 <0>        -0.0558
      5 C5          1.2248   -0.6793   -0.0133 C.ar      1 <0>        -0.0806
      6 C6          0.0021   -0.0041    0.0020 C.ar      1 <0>        -0.0039
      7 C7         -1.2630   -0.7622    0.0105 C.2       1 <0>         0.1035
      8 N1         -1.2418   -2.0596    0.0033 N.2       1 <0>        -0.2080
      9 N2         -2.4435   -2.7798    0.0114 N.am      1 <0>        -0.5764
     10 C8         -2.4216   -4.1274    0.0040 C.2       1 <0>         0.5733
     11 O1         -1.3614   -4.7167   -0.0097 O.2       1 <0>        -0.4629
     12 C9         -3.7142   -4.9021    0.0126 C.3       1 <0>        -0.0566
     13 H1         -4.4474   -4.4322   -0.6429 H         1 <0>         0.1789
     14 C10        -4.2575   -5.0226    1.4253 C.2       1 <0>        -0.1478
     15 C11        -4.2722   -6.3501    1.6532 C.2       1 <0>         0.0274
     16 N3         -3.8114   -7.0230    0.5663 N.2       1 <0>        -0.1410
     17 N4         -3.4843   -6.3014   -0.3831 N.2       1 <0>        -0.1086
     18 C12        -4.7268   -6.9876    2.9135 C.ar      1 <0>        -0.0342
     19 C13        -5.1871   -6.2015    3.9682 C.ar      1 <0>        -0.0863
     20 C14        -5.6087   -6.7992    5.1382 C.ar      1 <0>        -0.1103
     21 C15        -5.5747   -8.1774    5.2656 C.ar      1 <0>        -0.0220
     22 C16        -5.1184   -8.9626    4.2207 C.ar      1 <0>        -0.1096
     23 C17        -4.7003   -8.3748    3.0443 C.ar      1 <0>        -0.0699
     24 Cl1        -6.1056   -8.9232    6.7406 Cl        1 <0>        -0.0600
     25 N5          3.6473    2.1806   -0.0225 N.pl3     1 <0>         0.0294
     26 O2          3.6276    3.3894   -0.0162 O.2       1 <0>        -0.1534
     27 O3          4.7039    1.5933   -0.0361 O.3       1 <0>        -0.1526
     28 H2         -0.9586    1.9211    0.0260 H         1 <0>         0.1550
     29 H3          1.1570    3.1751    0.0081 H         1 <0>         0.1602
     30 H4          3.3500   -0.4845   -0.0337 H         1 <0>         0.1594
     31 H5          1.2468   -1.7591   -0.0197 H         1 <0>         0.1588
     32 H6         -2.2069   -0.2376    0.0227 H         1 <0>         0.1356
     33 H7         -3.2913   -2.3086    0.0224 H         1 <0>         0.3932
     34 H8         -4.5617   -4.2290    2.0918 H         1 <0>         0.1837
     35 H9         -5.2133   -5.1263    3.8701 H         1 <0>         0.1340
     36 H10        -5.9656   -6.1909    5.9561 H         1 <0>         0.1408
     37 H11        -5.0934  -10.0373    4.3249 H         1 <0>         0.1422
     38 H12        -4.3490   -8.9885    2.2280 H         1 <0>         0.1467
@<TRIPOS>BOND
     1    1    6 ar
     2    1    2 ar
     3    1   28 1
     4    2    3 ar
     5    2   29 1
     6    3    4 ar
     7    3   25 1
     8    4    5 ar
     9    4   30 1
    10    5    6 ar
    11    5   31 1
    12    6    7 1
    13    7    8 2
    14    7   32 1
    15    8    9 1
    16    9   10 am
    17    9   33 1
    18   10   11 2
    19   10   12 1
    20   12   13 1
    21   12   17 1
    22   12   14 1
    23   14   15 2
    24   14   34 1
    25   15   16 1
    26   15   18 1
    27   16   17 2
    28   18   23 ar
    29   18   19 ar
    30   19   20 ar
    31   19   35 1
    32   20   21 ar
    33   20   36 1
    34   21   22 ar
    35   21   24 1
    36   22   23 ar
    37   22   37 1
    38   23   38 1
    39   25   26 2
    40   25   27 1
@<TRIPOS>MOLECULE
ZINC19174322
   48    49     0     0     0
SMALL
USER_CHARGES

@<TRIPOS>ATOM
      1 C1         -0.4998   -0.2960   -0.3154 C.3       1 <0>        -0.1205
      2 C2         -0.2350   -1.7738   -0.1858 C.ar      1 <0>        -0.1098
      3 C3          0.2468   -2.4842   -1.2660 C.ar      1 <0>        -0.0294
      4 C4          0.4920   -3.8527   -1.1441 C.ar      1 <0>        -0.1621
      5 C5          0.2476   -4.4938    0.0719 C.ar      1 <0>         0.0415
      6 C6         -0.2340   -3.7719    1.1439 C.ar      1 <0>        -0.6849
      7 C7         -0.4700   -2.4141    1.0178 C.ar      1 <0>         0.0533
      8 C8         -0.9908   -1.6307    2.1951 C.3       1 <0>        -0.1875
      9 S1         -0.5431   -4.5789    2.6795 S.o2      1 <0>         2.6945
     10 O1         -0.2611   -5.9570    2.4780 O.2       1 <0>        -0.9461
     11 O2          0.1048   -3.8073    3.6815 O.2       1 <0>        -0.9469
     12 N1         -2.1690   -4.4665    2.9730 N.pl3     1 <0>        -1.0024
     13 C9         -3.0939   -5.4138    2.3456 C.3       1 <0>         0.0902
     14 C10        -2.6826   -3.4199    3.8601 C.3       1 <0>         0.0720
     15 C11         1.0077   -4.6202   -2.2973 C.2       1 <0>         0.5667
     16 O3          1.2203   -5.8121   -2.1881 O.2       1 <0>        -0.5036
     17 N2          1.2422   -3.9984   -3.4699 N.am      1 <0>        -0.6649
     18 C12         1.6558   -4.7375   -4.5828 C.ar      1 <0>         0.1510
     19 C13         2.4134   -5.8891   -4.4111 C.ar      1 <0>        -0.0774
     20 C14         2.8203   -6.6165   -5.5120 C.ar      1 <0>        -0.0963
     21 C15         2.4747   -6.1995   -6.7846 C.ar      1 <0>        -0.0704
     22 C16         1.7210   -5.0535   -6.9590 C.ar      1 <0>        -0.0252
     23 C17         1.3052   -4.3249   -5.8616 C.ar      1 <0>        -0.0553
     24 C18         0.4781   -3.0797   -6.0522 C.3       1 <0>        -0.1272
     25 N3          1.3538   -4.6105   -8.3227 N.pl3     1 <0>         0.0301
     26 O4          1.0467   -5.4258   -9.1609 O.2       1 <0>        -0.1494
     27 O5          1.3610   -3.4334   -8.5985 O.3       1 <0>        -0.1463
     28 H1          0.4008    0.2590   -0.0527 H         1 <0>         0.0798
     29 H2         -0.7814   -0.0661   -1.3430 H         1 <0>         0.0735
     30 H3         -1.3104   -0.0119    0.3556 H         1 <0>         0.0773
     31 H4          0.4334   -1.9824   -2.2040 H         1 <0>         0.1342
     32 H5          0.4349   -5.5526    0.1727 H         1 <0>         0.1597
     33 H6         -2.0806   -1.6536    2.1934 H         1 <0>         0.0980
     34 H7         -0.6195   -2.0737    3.1192 H         1 <0>         0.1074
     35 H8         -0.6490   -0.5981    2.1243 H         1 <0>         0.0945
     36 H9         -3.1520   -6.3191    2.9498 H         1 <0>         0.0667
     37 H10        -4.0830   -4.9616    2.2725 H         1 <0>         0.0796
     38 H11        -2.7347   -5.6654    1.3477 H         1 <0>         0.0684
     39 H12        -2.9843   -2.5566    3.2670 H         1 <0>         0.0624
     40 H13        -3.5425   -3.8004    4.4114 H         1 <0>         0.0805
     41 H14        -1.9031   -3.1238    4.5621 H         1 <0>         0.0891
     42 H15         1.1240   -3.0384   -3.5420 H         1 <0>         0.4148
     43 H16         2.6843   -6.2149   -3.4177 H         1 <0>         0.1649
     44 H17         3.4094   -7.5120   -5.3792 H         1 <0>         0.1538
     45 H18         2.7944   -6.7700   -7.6440 H         1 <0>         0.1507
     46 H19         1.1358   -2.2334   -6.2505 H         1 <0>         0.0976
     47 H20        -0.1991   -3.2188   -6.8949 H         1 <0>         0.0802
     48 H21        -0.1007   -2.8861   -5.1490 H         1 <0>         0.0733
@<TRIPOS>BOND
     1    1    2 1
     2    1   28 1
     3    1   29 1
     4    1   30 1
     5    2    7 ar
     6    2    3 ar
     7    3    4 ar
     8    3   31 1
     9    4    5 ar
    10    4   15 1
    11    5    6 ar
    12    5   32 1
    13    6    7 ar
    14    6    9 1
    15    7    8 1
    16    8   33 1
    17    8   34 1
    18    8   35 1
    19    9   10 2
    20    9   11 2
    21    9   12 1
    22   12   13 1
    23   12   14 1
    24   13   36 1
    25   13   37 1
    26   13   38 1
    27   14   39 1
    28   14   40 1
    29   14   41 1
    30   15   16 2
    31   15   17 am
    32   17   18 1
    33   17   42 1
    34   18   23 ar
    35   18   19 ar
    36   19   20 ar
    37   19   43 1
    38   20   21 ar
    39   20   44 1
    40   21   22 ar
    41   21   45 1
    42   22   23 ar
    43   22   25 1
    44   23   24 1
    45   24   46 1
    46   24   47 1
    47   24   48 1
    48   25   26 2
    49   25   27 1
@<TRIPOS>MOLECULE
ZINC08646916
   38    40     0     0     0
SMALL
USER_CHARGES

@<TRIPOS>ATOM
      1 C1         -0.0187    1.5258    0.0104 C.3       1 <0>        -0.1464
      2 C2          0.0021   -0.0041    0.0020 C.3       1 <0>         0.1636
      3 C3         -1.4025   -0.5572    0.1392 C.2       1 <0>         0.5401
      4 O1         -2.3322   -0.3918   -0.6211 O.2       1 <0>        -0.4485
      5 N1         -1.4027   -1.2718    1.2819 N.am      1 <0>        -0.5634
      6 C4         -0.2059   -1.2473    1.8794 C.2       1 <0>         0.7104
      7 O2          0.0398   -1.8188    2.9235 O.2       1 <0>        -0.5258
      8 N2          0.6953   -0.5196    1.1952 N.am      1 <0>        -0.7156
      9 C5         -2.5694   -1.9865    1.8054 C.3       1 <0>         0.0710
     10 C6         -2.5846   -3.3912    1.2598 C.2       1 <0>         0.4261
     11 O3         -1.7058   -3.7596    0.5065 O.2       1 <0>        -0.4303
     12 C7         -3.6194   -4.2782    1.6239 C.2       1 <0>        -0.2939
     13 C8         -3.8148   -5.6029    1.2419 C.2       1 <0>        -0.0365
     14 C9         -4.9245   -6.2145    1.7646 C.2       1 <0>        -0.1780
     15 C10        -5.7377   -5.5101    2.5968 C.2       1 <0>        -0.1539
     16 S1         -5.0133   -3.9977    2.6993 S.3       1 <0>         0.2833
     17 Cl1        -7.1886   -6.0525    3.3805 Cl        1 <0>         0.0336
     18 C11         0.6570   -0.5170   -1.2546 C.ar      1 <0>        -0.0467
     19 C12        -0.1074   -0.7720   -2.3778 C.ar      1 <0>        -0.1040
     20 C13         0.4933   -1.2424   -3.5305 C.ar      1 <0>        -0.0464
     21 C14         1.8585   -1.4574   -3.5601 C.ar      1 <0>        -0.0399
     22 C15         2.6230   -1.2015   -2.4372 C.ar      1 <0>        -0.0506
     23 C16         2.0229   -0.7270   -1.2859 C.ar      1 <0>        -0.0949
     24 N3          2.5016   -1.9621   -4.7941 N.pl3     1 <0>         0.0304
     25 O4          1.8329   -2.1863   -5.7760 O.2       1 <0>        -0.1515
     26 O5          3.6956   -2.1502   -4.8200 O.3       1 <0>        -0.1525
     27 H1          1.0039    1.9031    0.0027 H         1 <0>         0.0880
     28 H2         -0.5459    1.8868   -0.8726 H         1 <0>         0.0914
     29 H3         -0.5289    1.8773    0.9072 H         1 <0>         0.0808
     30 H4          1.6211   -0.3648    1.4398 H         1 <0>         0.4440
     31 H5         -2.5168   -2.0200    2.8937 H         1 <0>         0.1385
     32 H6         -3.4792   -1.4688    1.5014 H         1 <0>         0.1361
     33 H7         -3.1360   -6.1153    0.5763 H         1 <0>         0.1591
     34 H8         -5.1503   -7.2417    1.5188 H         1 <0>         0.1517
     35 H9         -1.1741   -0.6040   -2.3546 H         1 <0>         0.1626
     36 H10        -0.1040   -1.4424   -4.4078 H         1 <0>         0.1601
     37 H11         3.6896   -1.3699   -2.4603 H         1 <0>         0.1602
     38 H12         2.6208   -0.5236   -0.4098 H         1 <0>         0.1478
@<TRIPOS>BOND
     1    1    2 1
     2    1   27 1
     3    1   28 1
     4    1   29 1
     5    2    8 1
     6    2    3 1
     7    2   18 1
     8    3    4 2
     9    3    5 am
    10    5    6 am
    11    5    9 1
    12    6    7 2
    13    6    8 am
    14    8   30 1
    15    9   10 1
    16    9   31 1
    17    9   32 1
    18   10   11 2
    19   10   12 1
    20   12   16 1
    21   12   13 2
    22   13   14 1
    23   13   33 1
    24   14   15 2
    25   14   34 1
    26   15   16 1
    27   15   17 1
    28   18   23 ar
    29   18   19 ar
    30   19   20 ar
    31   19   35 1
    32   20   21 ar
    33   20   36 1
    34   21   22 ar
    35   21   24 1
    36   22   23 ar
    37   22   37 1
    38   23   38 1
    39   24   25 2
    40   24   26 1
@<TRIPOS>MOLECULE
ZINC02732839
   36    37     0     0     0
SMALL
USER_CHARGES
1-(difluoromethyl)-5-methyl-N-[1-methyl-3-(methylcarbamoyl)pyrazol-4-yl]pyrazole-3-carboxamide
@<TRIPOS>ATOM
      1 C1         -6.7161   -4.8121   -0.0352 C.3       1 <0>        -0.0899
      2 C2         -5.6396   -3.7575   -0.0274 C.2       1 <0>         0.0317
      3 C3         -5.8285   -2.4173   -0.0078 C.2       1 <0>        -0.1656
      4 C4         -4.5311   -1.8523   -0.0109 C.2       1 <0>         0.0061
      5 N1         -3.6752   -2.8547   -0.0223 N.2       1 <0>        -0.2396
      6 N2         -4.3066   -3.9735   -0.0320 N.pl3     1 <0>        -0.3447
      7 C5         -3.6718   -5.2937   -0.0464 C.3       1 <0>         0.5024
      8 F1         -2.4391   -5.2257    0.6115 F         1 <0>        -0.1629
      9 F2         -4.4980   -6.2156    0.6053 F         1 <0>        -0.1702
     10 C6         -4.1991   -0.4133    0.0024 C.2       1 <0>         0.6075
     11 O1         -5.0885    0.4158    0.0126 O.2       1 <0>        -0.5172
     12 N3         -2.9103   -0.0190    0.0033 N.am      1 <0>        -0.6181
     13 C7         -2.5949    1.3478    0.0160 C.2       1 <0>         0.0841
     14 C8         -3.4637    2.3937    0.0318 C.2       1 <0>        -0.0269
     15 N4         -2.7196    3.5295    0.0338 N.pl3     1 <0>        -0.2749
     16 N5         -1.4682    3.2403    0.0262 N.2       1 <0>        -0.2444
     17 C9         -1.3017    1.9318    0.0187 C.2       1 <0>        -0.0385
     18 C10        -0.0144    1.2117    0.0087 C.2       1 <0>         0.6072
     19 O2          0.0021   -0.0041    0.0020 O.2       1 <0>        -0.5359
     20 N6          1.1435    1.9014    0.0014 N.am      1 <0>        -0.7204
     21 C11         2.4220    1.1863   -0.0147 C.3       1 <0>         0.0868
     22 C12        -3.2656    4.8889    0.0439 C.3       1 <0>         0.0884
     23 H1         -6.9737   -5.0759    0.9906 H         1 <0>         0.0863
     24 H2         -7.5995   -4.4258   -0.5437 H         1 <0>         0.0915
     25 H3         -6.3539   -5.6972   -0.5580 H         1 <0>         0.0760
     26 H4         -6.7711   -1.8901    0.0047 H         1 <0>         0.1732
     27 H5         -3.5163   -5.6108   -1.0776 H         1 <0>         0.1657
     28 H6         -2.2008   -0.6804   -0.0048 H         1 <0>         0.4320
     29 H7         -4.5419    2.3326    0.0365 H         1 <0>         0.2078
     30 H8          1.1303    2.8713    0.0067 H         1 <0>         0.4094
     31 H9          2.4967    0.5557    0.8712 H         1 <0>         0.0632
     32 H10         2.4797    0.5653   -0.9086 H         1 <0>         0.0631
     33 H11         3.2407    1.9058   -0.0186 H         1 <0>         0.0787
     34 H12        -3.4064    5.2315   -0.9813 H         1 <0>         0.0888
     35 H13        -4.2241    4.8917    0.5628 H         1 <0>         0.1003
     36 H14        -2.5724    5.5551    0.5576 H         1 <0>         0.0990
@<TRIPOS>BOND
     1    1    2 1
     2    1   23 1
     3    1   24 1
     4    1   25 1
     5    2    6 1
     6    2    3 2
     7    3    4 1
     8    3   26 1
     9    4    5 2
    10    4   10 1
    11    5    6 1
    12    6    7 1
    13    7    8 1
    14    7    9 1
    15    7   27 1
    16   10   11 2
    17   10   12 am
    18   12   13 1
    19   12   28 1
    20   13   17 1
    21   13   14 2
    22   14   15 1
    23   14   29 1
    24   15   16 1
    25   15   22 1
    26   16   17 2
    27   17   18 1
    28   18   19 2
    29   18   20 am
    30   20   21 1
    31   20   30 1
    32   21   31 1
    33   21   32 1
    34   21   33 1
    35   22   34 1
    36   22   35 1
    37   22   36 1
@<TRIPOS>MOLECULE
ZINC40169333
   33    34     0     0     0
SMALL
USER_CHARGES

@<TRIPOS>ATOM
      1 C1          1.0717   -0.4528   -0.7673 C.ar      1 <0>        -0.1229
      2 C2          2.2555    0.2585   -0.7800 C.ar      1 <0>        -0.0302
      3 C3          2.3760    1.4168   -0.0344 C.ar      1 <0>        -0.0689
      4 C4          1.3123    1.8668    0.7261 C.ar      1 <0>        -0.0296
      5 C5          0.1260    1.1598    0.7434 C.ar      1 <0>        -0.1479
      6 C6          0.0017   -0.0035   -0.0046 C.ar      1 <0>         0.2207
      7 N1         -1.1994   -0.7217    0.0101 N.am      1 <0>        -0.6817
      8 C7         -1.1827   -2.0649   -0.0990 C.2       1 <0>         0.7082
      9 O1         -0.1229   -2.6607   -0.1129 O.2       1 <0>        -0.5573
     10 N2         -2.3409   -2.7478   -0.1927 N.am      1 <0>        -0.7248
     11 C8         -2.3228   -4.2079   -0.3113 C.3       1 <0>         0.1527
     12 H1         -1.4502   -4.5118   -0.8894 H         1 <0>         0.1385
     13 C9         -2.2448   -4.8381    1.1073 C.3       1 <0>        -0.5894
     14 S1         -2.8669   -6.5344    0.7250 S.o2      1 <0>         2.3748
     15 O2         -3.5957   -7.0274    1.8408 O.2       1 <0>        -0.9176
     16 O3         -1.8076   -7.3087    0.1796 O.2       1 <0>        -0.9132
     17 C10        -4.0447   -6.0864   -0.6175 C.3       1 <0>        -0.5888
     18 C11        -3.5903   -4.6727   -1.0270 C.3       1 <0>        -0.0168
     19 H2         -3.4080   -4.6635   -2.1016 H         1 <0>         0.1404
     20 Cl1        -4.9190   -3.5097   -0.6626 Cl        1 <0>        -0.1437
     21 N3          3.6463    2.1764   -0.0500 N.pl3     1 <0>         0.0358
     22 O4          4.5772    1.7839   -0.7141 O.2       1 <0>        -0.1589
     23 O5          3.7531    3.1893    0.6015 O.3       1 <0>        -0.1605
     24 H3          0.9768   -1.3549   -1.3533 H         1 <0>         0.1595
     25 H4          3.0882   -0.0905   -1.3727 H         1 <0>         0.1582
     26 H5          1.4095    2.7718    1.3074 H         1 <0>         0.1591
     27 H6         -0.7041    1.5114    1.3382 H         1 <0>         0.1512
     28 H7         -2.0438   -0.2527    0.0988 H         1 <0>         0.4161
     29 H8         -3.1864   -2.2725   -0.1816 H         1 <0>         0.4072
     30 H9         -1.2189   -4.8645    1.4745 H         1 <0>         0.1573
     31 H10        -2.9017   -4.3225    1.8078 H         1 <0>         0.1487
     32 H11        -3.9546   -6.7783   -1.4549 H         1 <0>         0.1616
     33 H12        -5.0675   -6.0671   -0.2413 H         1 <0>         0.1621
@<TRIPOS>BOND
     1    1    6 ar
     2    1    2 ar
     3    1   24 1
     4    2    3 ar
     5    2   25 1
     6    3    4 ar
     7    3   21 1
     8    4    5 ar
     9    4   26 1
    10    5    6 ar
    11    5   27 1
    12    6    7 1
    13    7    8 am
    14    7   28 1
    15    8    9 2
    16    8   10 am
    17   10   11 1
    18   10   29 1
    19   11   12 1
    20   11   18 1
    21   11   13 1
    22   13   14 1
    23   13   30 1
    24   13   31 1
    25   14   15 2
    26   14   16 2
    27   14   17 1
    28   17   18 1
    29   17   32 1
    30   17   33 1
    31   18   19 1
    32   18   20 1
    33   21   22 2
    34   21   23 1
@<TRIPOS>MOLECULE
ZINC50636571
   40    41     0     0     0
SMALL
USER_CHARGES

@<TRIPOS>ATOM
      1 C1         -0.0178    1.4608    0.0101 C.3       1 <0>         0.1237
      2 N1          0.0021   -0.0041    0.0020 N.pl3     1 <0>        -0.6780
      3 C2          1.2806   -0.7192   -0.0140 C.3       1 <0>         0.1206
      4 C3         -1.1910   -0.7147    0.0096 C.ar      1 <0>         0.2906
      5 C4         -1.7996   -1.0706   -1.1878 C.ar      1 <0>        -0.1319
      6 C5         -2.9848   -1.7766   -1.1776 C.ar      1 <0>        -0.0243
      7 C6         -3.5776   -2.1356    0.0228 C.ar      1 <0>        -0.0623
      8 C7         -2.9895   -1.7914    1.2199 C.ar      1 <0>        -0.0182
      9 C8         -1.7855   -1.0823    1.2266 C.ar      1 <0>        -0.1484
     10 C9         -1.1470   -0.7167    2.5043 C.2       1 <0>         0.5695
     11 O1         -0.1020   -0.0948    2.5058 O.2       1 <0>        -0.4860
     12 N2         -1.7216   -1.0718    3.6706 N.am      1 <0>        -0.7171
     13 C10        -1.0871   -0.7086    4.9402 C.3       1 <0>         0.1407
     14 H1         -0.0037   -0.7488    4.8280 H         1 <0>         0.1220
     15 C11        -1.5228   -1.6947    6.0268 C.3       1 <0>        -0.1327
     16 C12        -1.0774   -1.1448    7.3872 C.3       1 <0>        -0.1343
     17 C13        -1.8812    0.1201    7.6910 C.3       1 <0>         0.1053
     18 N3         -1.8281    1.0415    6.5628 N.am      1 <0>        -0.7197
     19 C14        -1.4977    0.6845    5.3224 C.2       1 <0>         0.5018
     20 O2         -1.5287    1.5320    4.4555 O.2       1 <0>        -0.5313
     21 N4         -4.8496   -2.8926    0.0182 N.pl3     1 <0>         0.0350
     22 O3         -5.3688   -3.1961   -1.0306 O.2       1 <0>        -0.1519
     23 O4         -5.3694   -3.2074    1.0634 O.3       1 <0>        -0.1585
     24 H2          1.0048    1.8381    0.0023 H         1 <0>         0.0714
     25 H3         -0.5450    1.8219   -0.8730 H         1 <0>         0.0393
     26 H4         -0.5280    1.8123    0.9069 H         1 <0>         0.0485
     27 H5          1.6074   -0.9021    1.0096 H         1 <0>         0.0460
     28 H6          1.1583   -1.6705   -0.5318 H         1 <0>         0.0506
     29 H7          2.0272   -0.1171   -0.5318 H         1 <0>         0.0637
     30 H8         -1.3445   -0.7941   -2.1274 H         1 <0>         0.1563
     31 H9         -3.4540   -2.0509   -2.1109 H         1 <0>         0.1607
     32 H10        -3.4560   -2.0735    2.1522 H         1 <0>         0.1532
     33 H11        -2.5551   -1.5678    3.6694 H         1 <0>         0.4017
     34 H12        -2.6074   -1.8019    6.0116 H         1 <0>         0.0799
     35 H13        -1.0553   -2.6637    5.8517 H         1 <0>         0.0883
     36 H14        -1.2619   -1.8900    8.1610 H         1 <0>         0.0952
     37 H15        -0.0149   -0.9039    7.3541 H         1 <0>         0.0781
     38 H16        -2.9188   -0.1506    7.8865 H         1 <0>         0.0696
     39 H17        -1.4667    0.6070    8.5737 H         1 <0>         0.0816
     40 H18        -2.0483    1.9721    6.7252 H         1 <0>         0.4015
@<TRIPOS>BOND
     1    1    2 1
     2    1   24 1
     3    1   25 1
     4    1   26 1
     5    2    3 1
     6    2    4 1
     7    3   27 1
     8    3   28 1
     9    3   29 1
    10    4    9 ar
    11    4    5 ar
    12    5    6 ar
    13    5   30 1
    14    6    7 ar
    15    6   31 1
    16    7    8 ar
    17    7   21 1
    18    8    9 ar
    19    8   32 1
    20    9   10 1
    21   10   11 2
    22   10   12 am
    23   12   13 1
    24   12   33 1
    25   13   14 1
    26   13   19 1
    27   13   15 1
    28   15   16 1
    29   15   34 1
    30   15   35 1
    31   16   17 1
    32   16   36 1
    33   16   37 1
    34   17   18 1
    35   17   38 1
    36   17   39 1
    37   18   19 am
    38   18   40 1
    39   19   20 2
    40   21   22 2
    41   21   23 1
@<TRIPOS>MOLECULE
ZINC04860766
   38    39     0     0     0
SMALL
USER_CHARGES

@<TRIPOS>ATOM
      1 C1          0.4789    0.7448    1.2135 C.3       1 <0>        -0.2074
      2 C2          0.0429   -0.0266   -0.0054 C.2       1 <0>         0.3520
      3 O1          0.7422   -0.0461   -0.9897 O.2       1 <0>        -0.4239
      4 C3         -1.2659   -0.7737    0.0040 C.3       1 <0>        -0.1363
      5 H1         -1.9957   -0.2252    0.5995 H         1 <0>         0.1381
      6 C4         -1.0572   -2.1695    0.6036 C.3       1 <0>        -0.0244
      7 H2         -1.9648   -2.7608    0.4816 H         1 <0>         0.1456
      8 C5          0.1011   -2.8450   -0.1347 C.3       1 <0>        -0.0103
      9 H3          0.1393   -3.8993    0.1391 H         1 <0>         0.1585
     10 C6         -0.0974   -2.7218   -1.6182 C.2       1 <0>         0.5475
     11 O2          0.5318   -3.4613   -2.3449 O.2       1 <0>        -0.5187
     12 N1         -0.9289   -1.8430   -2.1792 N.am      1 <0>        -0.7115
     13 C7         -1.7811   -0.9241   -1.4279 C.3       1 <0>         0.3566
     14 C8         -1.7837    0.4450   -2.1109 C.3       1 <0>        -0.1997
     15 O3         -3.1152   -1.4353   -1.3986 O.3       1 <0>        -0.5580
     16 C9          1.3668   -2.1955    0.2432 C.1       1 <0>         0.1893
     17 N2          2.3437   -1.6943    0.5348 N.1       1 <0>        -0.3690
     18 C10        -0.7241   -2.0479    2.0683 C.ar      1 <0>        -0.0929
     19 C11        -1.3253   -1.0668    2.8348 C.ar      1 <0>        -0.0623
     20 C12        -1.0198   -0.9553    4.1781 C.ar      1 <0>        -0.1086
     21 C13        -0.1134   -1.8251    4.7555 C.ar      1 <0>        -0.0503
     22 C14         0.4869   -2.8065    3.9894 C.ar      1 <0>        -0.0376
     23 C15         0.1781   -2.9208    2.6466 C.ar      1 <0>        -0.0551
     24 N3          1.4577   -3.7374    4.6074 N.pl3     1 <0>         0.0299
     25 O4          1.7255   -3.6394    5.7823 O.2       1 <0>        -0.1495
     26 O5          1.9827   -4.5959    3.9373 O.3       1 <0>        -0.1521
     27 H4          1.4429    1.2153    1.0201 H         1 <0>         0.0911
     28 H5         -0.2607    1.5123    1.4416 H         1 <0>         0.1004
     29 H6          0.5700    0.0648    2.0605 H         1 <0>         0.0923
     30 H7         -0.9703   -1.8106   -3.1478 H         1 <0>         0.4086
     31 H8         -0.7696    0.8444   -2.1280 H         1 <0>         0.0873
     32 H9         -2.1505    0.3409   -3.1320 H         1 <0>         0.0763
     33 H10        -2.4327    1.1250   -1.5591 H         1 <0>         0.0851
     34 H11        -3.5089   -1.5575   -2.2733 H         1 <0>         0.3912
     35 H12        -2.0333   -0.3873    2.3838 H         1 <0>         0.1506
     36 H13        -1.4889   -0.1885    4.7768 H         1 <0>         0.1555
     37 H14         0.1258   -1.7376    5.8050 H         1 <0>         0.1583
     38 H15         0.6443   -3.6900    2.0489 H         1 <0>         0.1533
@<TRIPOS>BOND
     1    1    2 1
     2    1   27 1
     3    1   28 1
     4    1   29 1
     5    2    3 2
     6    2    4 1
     7    4    5 1
     8    4   13 1
     9    4    6 1
    10    6    7 1
    11    6    8 1
    12    6   18 1
    13    8    9 1
    14    8   10 1
    15    8   16 1
    16   10   11 2
    17   10   12 am
    18   12   13 1
    19   12   30 1
    20   13   14 1
    21   13   15 1
    22   14   31 1
    23   14   32 1
    24   14   33 1
    25   15   34 1
    26   16   17 3
    27   18   23 ar
    28   18   19 ar
    29   19   20 ar
    30   19   35 1
    31   20   21 ar
    32   20   36 1
    33   21   22 ar
    34   21   37 1
    35   22   23 ar
    36   22   24 1
    37   23   38 1
    38   24   25 2
    39   24   26 1
@<TRIPOS>MOLECULE
ZINC67261209
   48    50     0     0     0
SMALL
USER_CHARGES

@<TRIPOS>ATOM
      1 C1          0.0051    1.5285   -0.0196 C.3       1 <0>        -0.1699
      2 C2          0.0229   -0.0014   -0.0250 C.3       1 <0>         0.1258
      3 N1          0.7250   -0.4858    1.1661 N.pl3     1 <0>        -0.3659
      4 C3          2.0486   -0.7303    1.2629 C.2       1 <0>         0.1129
      5 C4          2.2974   -1.1621    2.5210 C.2       1 <0>        -0.2680
      6 C5          1.0842   -1.1822    3.2168 C.2       1 <0>         0.0940
      7 N2          0.1419   -0.7712    2.4074 N.2       1 <0>        -0.2941
      8 C6          0.8960   -1.5986    4.6529 C.3       1 <0>        -0.0764
      9 C7          3.6435   -1.5531    3.0743 C.3       1 <0>         0.2223
     10 N3          4.2916   -0.3766    3.6590 N.am      1 <0>        -0.7340
     11 C8          5.5130   -0.4880    4.2178 C.2       1 <0>         0.7035
     12 O1          6.0769   -1.5650    4.2367 O.2       1 <0>        -0.5756
     13 N4          6.1092    0.5944    4.7558 N.am      1 <0>        -0.6788
     14 C9          7.3348    0.4604    5.4234 C.ar      1 <0>         0.0642
     15 C10         8.2755   -0.4563    4.9817 C.ar      1 <0>         0.0076
     16 C11         9.4827   -0.5495    5.6841 C.ar      1 <0>        -0.2047
     17 C12        10.6835   -1.3646    5.5375 C.2       1 <0>         0.1107
     18 N5         11.5084   -1.0279    6.4874 N.2       1 <0>        -0.2384
     19 N6         10.9435   -0.0254    7.2816 N.pl3     1 <0>        -0.3961
     20 C13         9.6973    0.2812    6.8018 C.ar      1 <0>         0.3012
     21 N7          8.7608    1.1419    7.1803 N.ar      1 <0>        -0.4857
     22 C14         7.6211    1.2518    6.5343 C.ar      1 <0>         0.1553
     23 C15        11.5825    0.5979    8.4433 C.3       1 <0>         0.1131
     24 C16        10.9257   -2.4087    4.4781 C.3       1 <0>        -0.0772
     25 C17         3.0672   -0.5544    0.1662 C.3       1 <0>        -0.0976
     26 H1          1.0285    1.9037   -0.0234 H         1 <0>         0.0608
     27 H2         -0.5173    1.8889   -0.9058 H         1 <0>         0.0793
     28 H3         -0.5085    1.8827    0.8741 H         1 <0>         0.0658
     29 H4         -1.0004   -0.3767   -0.0212 H         1 <0>         0.0971
     30 H5          0.5366   -0.3557   -0.9187 H         1 <0>         0.0941
     31 H6          1.0077   -0.7292    5.3009 H         1 <0>         0.0774
     32 H7         -0.1003   -2.0216    4.7809 H         1 <0>         0.0743
     33 H8          1.6446   -2.3460    4.9155 H         1 <0>         0.0791
     34 H9          3.5130   -2.3154    3.8424 H         1 <0>         0.0757
     35 H10         4.2653   -1.9490    2.2714 H         1 <0>         0.0725
     36 H11         3.8417    0.4827    3.6440 H         1 <0>         0.3976
     37 H12         5.6904    1.4661    4.6810 H         1 <0>         0.4087
     38 H13         8.0829   -1.0804    4.1215 H         1 <0>         0.1576
     39 H14         6.8885    1.9688    6.8744 H         1 <0>         0.1672
     40 H15        12.1527    1.4689    8.1205 H         1 <0>         0.0705
     41 H16        10.8180    0.9077    9.1558 H         1 <0>         0.0895
     42 H17        12.2522   -0.1193    8.9179 H         1 <0>         0.0877
     43 H18        11.3955   -1.9443    3.6110 H         1 <0>         0.0850
     44 H19        11.5812   -3.1838    4.8749 H         1 <0>         0.0819
     45 H20         9.9754   -2.8531    4.1820 H         1 <0>         0.0857
     46 H21         3.4702    0.4576    0.2035 H         1 <0>         0.0827
     47 H22         3.8757   -1.2727    0.3027 H         1 <0>         0.0888
     48 H23         2.5925   -0.7211   -0.8007 H         1 <0>         0.0729
@<TRIPOS>BOND
     1    1    2 1
     2    1   26 1
     3    1   27 1
     4    1   28 1
     5    2    3 1
     6    2   29 1
     7    2   30 1
     8    3    7 1
     9    3    4 1
    10    4    5 2
    11    4   25 1
    12    5    6 1
    13    5    9 1
    14    6    7 2
    15    6    8 1
    16    8   31 1
    17    8   32 1
    18    8   33 1
    19    9   10 1
    20    9   34 1
    21    9   35 1
    22   10   11 am
    23   10   36 1
    24   11   12 2
    25   11   13 am
    26   13   14 1
    27   13   37 1
    28   14   22 ar
    29   14   15 ar
    30   15   16 ar
    31   15   38 1
    32   16   20 ar
    33   16   17 1
    34   17   18 2
    35   17   24 1
    36   18   19 1
    37   19   20 1
    38   19   23 1
    39   20   21 ar
    40   21   22 ar
    41   22   39 1
    42   23   40 1
    43   23   41 1
    44   23   42 1
    45   24   43 1
    46   24   44 1
    47   24   45 1
    48   25   46 1
    49   25   47 1
    50   25   48 1
@<TRIPOS>MOLECULE
ZINC20019235
   44    46     0     0     0
SMALL
USER_CHARGES

@<TRIPOS>ATOM
      1 C1         -0.6494    0.7472    0.3246 C.3       1 <0>        -0.1939
      2 C2         -0.0928   -0.6775    0.3622 C.3       1 <0>         0.1532
      3 H1         -0.8749   -1.3671    0.6798 H         1 <0>         0.0763
      4 C3          0.4042   -1.0716   -1.0322 C.3       1 <0>        -0.1278
      5 C4          1.0848   -2.4404   -0.9588 C.3       1 <0>        -0.1191
      6 C5          2.2911   -2.3625   -0.0202 C.3       1 <0>        -0.1323
      7 C6          1.8155   -1.9830    1.3857 C.3       1 <0>         0.1114
      8 N1          1.0329   -0.7418    1.3043 N.pl3     1 <0>        -0.9997
      9 S1          1.4150    0.5610    2.2525 S.o2      1 <0>         2.7800
     10 O1          2.6980    0.2992    2.8044 O.2       1 <0>        -0.9669
     11 O2          1.1407    1.7209    1.4788 O.2       1 <0>        -0.9642
     12 N2          0.3485    0.5740    3.5194 N.pl3     1 <0>        -0.9434
     13 C7         -0.8338    1.4457    3.4914 C.3       1 <0>         0.1036
     14 C8         -0.9539    2.1164    4.8662 C.3       1 <0>        -0.1312
     15 C9         -1.1923    1.0379    5.9226 C.3       1 <0>        -0.0781
     16 C10        -0.1598   -0.0523    5.8061 C.ar      1 <0>        -0.0609
     17 C11         0.5558   -0.2515    4.6345 C.ar      1 <0>         0.1222
     18 C12         1.4956   -1.2724    4.5537 C.ar      1 <0>        -0.1236
     19 C13         1.7194   -2.0959    5.6387 C.ar      1 <0>        -0.1615
     20 C14         1.0035   -1.9018    6.8124 C.ar      1 <0>         0.1961
     21 C15         0.0702   -0.8744    6.8963 C.ar      1 <0>        -0.1704
     22 N3          1.2287   -2.7340    7.9155 N.pl3     1 <0>        -0.8810
     23 H2          0.0866    1.4131   -0.1260 H         1 <0>         0.0998
     24 H3         -1.5648    0.7641   -0.2668 H         1 <0>         0.0749
     25 H4         -0.8665    1.0794    1.3398 H         1 <0>         0.0596
     26 H5         -0.4408   -1.1218   -1.7189 H         1 <0>         0.0764
     27 H6          1.1185   -0.3287   -1.3873 H         1 <0>         0.0703
     28 H7          0.3771   -3.1779   -0.5802 H         1 <0>         0.0649
     29 H8          1.4176   -2.7343   -1.9543 H         1 <0>         0.0675
     30 H9          2.7890   -3.3316    0.0134 H         1 <0>         0.0781
     31 H10         2.9876   -1.6075   -0.3848 H         1 <0>         0.0684
     32 H11         1.1907   -2.7806    1.7878 H         1 <0>         0.0727
     33 H12         2.6780   -1.8295    2.0342 H         1 <0>         0.0959
     34 H13        -0.7141    2.2056    2.7191 H         1 <0>         0.1058
     35 H14        -1.7257    0.8520    3.2912 H         1 <0>         0.0770
     36 H15        -0.0321    2.6522    5.0929 H         1 <0>         0.0739
     37 H16        -1.7917    2.8136    4.8605 H         1 <0>         0.0862
     38 H17        -1.1318    1.4862    6.9143 H         1 <0>         0.0811
     39 H18        -2.1848    0.6098    5.7819 H         1 <0>         0.0794
     40 H19         2.0517   -1.4219    3.6399 H         1 <0>         0.1330
     41 H20         2.4492   -2.8895    5.5747 H         1 <0>         0.1265
     42 H21        -0.4859   -0.7243    7.8099 H         1 <0>         0.1244
     43 H22         1.8849   -3.4462    7.8598 H         1 <0>         0.3981
     44 H23         0.7286   -2.5983    8.7355 H         1 <0>         0.3975
@<TRIPOS>BOND
     1    1    2 1
     2    1   23 1
     3    1   24 1
     4    1   25 1
     5    2    3 1
     6    2    8 1
     7    2    4 1
     8    4    5 1
     9    4   26 1
    10    4   27 1
    11    5    6 1
    12    5   28 1
    13    5   29 1
    14    6    7 1
    15    6   30 1
    16    6   31 1
    17    7    8 1
    18    7   32 1
    19    7   33 1
    20    8    9 1
    21    9   10 2
    22    9   11 2
    23    9   12 1
    24   12   17 1
    25   12   13 1
    26   13   14 1
    27   13   34 1
    28   13   35 1
    29   14   15 1
    30   14   36 1
    31   14   37 1
    32   15   16 1
    33   15   38 1
    34   15   39 1
    35   16   21 ar
    36   16   17 ar
    37   17   18 ar
    38   18   19 ar
    39   18   40 1
    40   19   20 ar
    41   19   41 1
    42   20   21 ar
    43   20   22 1
    44   21   42 1
    45   22   43 1
    46   22   44 1
@<TRIPOS>MOLECULE
ZINC39022074
   35    37     0     0     0
SMALL
USER_CHARGES

@<TRIPOS>ATOM
      1 C1         -0.0184    1.5028    0.0103 C.3       1 <0>        -0.0984
      2 C2          0.0021   -0.0041    0.0020 C.2       1 <0>         0.0010
      3 C3         -1.0636   -0.7678    0.0029 C.2       1 <0>        -0.1651
      4 C4         -2.5370   -0.4917   -0.1224 C.3       1 <0>         0.1111
      5 H1         -3.0177   -0.5614    0.8533 H         1 <0>         0.1127
      6 C5         -3.0749   -1.5655   -1.0500 C.2       1 <0>        -0.2876
      7 C6         -2.3168   -2.6122   -1.4382 C.2       1 <0>         0.4518
      8 O1         -1.0334   -2.8415   -1.1072 O.3       1 <0>        -0.2791
      9 C7         -0.5285   -2.1988    0.0663 C.3       1 <0>         0.1663
     10 H2         -0.8342   -2.7144    0.9767 H         1 <0>         0.1662
     11 N1          0.9209   -1.9851    0.0015 N.2       1 <0>        -0.1350
     12 N2          1.1266   -0.7647   -0.0133 N.2       1 <0>        -0.1120
     13 N3         -2.9170   -3.5379   -2.2540 N.pl3     1 <0>        -0.8336
     14 C8         -4.4220   -1.4658   -1.5254 C.1       1 <0>         0.2736
     15 N4         -5.4906   -1.3866   -1.9025 N.1       1 <0>        -0.4393
     16 C9         -2.7622    0.8747   -0.7168 C.ar      1 <0>        -0.0863
     17 C10        -2.2741    1.1677   -1.9772 C.ar      1 <0>        -0.0774
     18 C11        -2.4781    2.4188   -2.5248 C.ar      1 <0>        -0.1001
     19 C12        -3.1754    3.3839   -1.8079 C.ar      1 <0>        -0.0754
     20 C13        -3.6648    3.0857   -0.5419 C.ar      1 <0>        -0.1314
     21 C14        -3.4614    1.8308   -0.0028 C.ar      1 <0>        -0.0849
     22 S1         -3.4377    4.9819   -2.5024 S.3       1 <0>        -0.1156
     23 C15        -4.3717    5.8678   -1.2244 C.3       1 <0>        -0.1450
     24 H3          1.0042    1.8801    0.0026 H         1 <0>         0.0817
     25 H4         -0.5455    1.8639   -0.8728 H         1 <0>         0.0930
     26 H5         -0.5286    1.8543    0.9071 H         1 <0>         0.0835
     27 H6         -3.8416   -3.4206   -2.5227 H         1 <0>         0.4241
     28 H7         -2.4166   -4.3097   -2.5620 H         1 <0>         0.4116
     29 H8         -1.7324    0.4172   -2.5337 H         1 <0>         0.1244
     30 H9         -2.0961    2.6471   -3.5088 H         1 <0>         0.1302
     31 H10        -4.2071    3.8333    0.0180 H         1 <0>         0.1259
     32 H11        -3.8450    1.5971    0.9794 H         1 <0>         0.1285
     33 H12        -5.3085    5.3452   -1.0311 H         1 <0>         0.0845
     34 H13        -3.7833    5.9099   -0.3078 H         1 <0>         0.0854
     35 H14        -4.5845    6.8807   -1.5664 H         1 <0>         0.1108
@<TRIPOS>BOND
     1    1    2 1
     2    1   24 1
     3    1   25 1
     4    1   26 1
     5    2   12 1
     6    2    3 2
     7    3    9 1
     8    3    4 1
     9    4    5 1
    10    4    6 1
    11    4   16 1
    12    6    7 2
    13    6   14 1
    14    7    8 1
    15    7   13 1
    16    8    9 1
    17    9   10 1
    18    9   11 1
    19   11   12 2
    20   13   27 1
    21   13   28 1
    22   14   15 3
    23   16   21 ar
    24   16   17 ar
    25   17   18 ar
    26   17   29 1
    27   18   19 ar
    28   18   30 1
    29   19   20 ar
    30   19   22 1
    31   20   21 ar
    32   20   31 1
    33   21   32 1
    34   22   23 1
    35   23   33 1
    36   23   34 1
    37   23   35 1
@<TRIPOS>MOLECULE
ZINC45918902
   36    38     0     0     0
SMALL
USER_CHARGES

@<TRIPOS>ATOM
      1 C1          2.2587    1.7465   -3.9466 C.3       1 <0>         0.0259
      2 O1          2.3562    0.3294   -4.1029 O.3       1 <0>        -0.3158
      3 C2          1.7917   -0.4386   -3.1340 C.ar      1 <0>         0.1236
      4 C3          1.1515    0.1623   -2.0574 C.ar      1 <0>        -0.1930
      5 C4          0.5742   -0.6123   -1.0676 C.ar      1 <0>        -0.0847
      6 C5          0.6299   -1.9883   -1.1414 C.ar      1 <0>        -0.1271
      7 C6          1.2722   -2.6041   -2.2215 C.ar      1 <0>        -0.0446
      8 C7          1.8502   -1.8179   -3.2239 C.ar      1 <0>        -0.1285
      9 C8          1.3346   -4.0704   -2.3052 C.2       1 <0>        -0.0161
     10 C9          1.8475   -4.6652   -3.4105 C.2       1 <0>        -0.0372
     11 C10         1.8718   -6.1106   -3.6887 C.2       1 <0>         0.4182
     12 O2          1.4439   -7.0122   -2.9895 O.2       1 <0>        -0.4153
     13 C11         2.5295   -6.2224   -5.0033 C.ar      1 <0>        -0.2768
     14 C12         2.8557   -7.3075   -5.8179 C.ar      1 <0>         0.0147
     15 C13         3.4803   -7.0970   -7.0145 C.ar      1 <0>        -0.1844
     16 C14         3.7919   -5.8027   -7.4226 C.ar      1 <0>         0.2024
     17 C15         3.4740   -4.7162   -6.6240 C.ar      1 <0>        -0.1411
     18 C16         2.8386   -4.9128   -5.4040 C.ar      1 <0>         0.1724
     19 O3          2.4253   -4.0377   -4.4616 O.3       1 <0>        -0.2023
     20 C17         3.8178   -3.3210   -7.0782 C.3       1 <0>         0.1219
     21 O4          2.7285   -2.7831   -7.8307 O.3       1 <0>        -0.5676
     22 O5          4.4130   -5.6039   -8.6129 O.3       1 <0>        -0.4881
     23 H1          1.2086    2.0373   -3.9170 H         1 <0>         0.0566
     24 H2          2.7443    2.0438   -3.0171 H         1 <0>         0.0564
     25 H3          2.7487    2.2392   -4.7863 H         1 <0>         0.1021
     26 H4          1.1047    1.2394   -1.9928 H         1 <0>         0.1312
     27 H5          0.0783   -0.1379   -0.2337 H         1 <0>         0.1314
     28 H6          0.1786   -2.5900   -0.3664 H         1 <0>         0.1327
     29 H7          2.3441   -2.2859   -4.0626 H         1 <0>         0.1525
     30 H8          0.9718   -4.6739   -1.4863 H         1 <0>         0.1698
     31 H9          2.6150   -8.3121   -5.5027 H         1 <0>         0.1441
     32 H10         3.7333   -7.9365   -7.6452 H         1 <0>         0.1476
     33 H11         4.0045   -2.6913   -6.2083 H         1 <0>         0.0602
     34 H12         4.7106   -3.3519   -7.7028 H         1 <0>         0.0686
     35 H13         2.8805   -1.8851   -8.1557 H         1 <0>         0.3847
     36 H14         3.8075   -5.4830   -9.3571 H         1 <0>         0.4057
@<TRIPOS>BOND
     1    1    2 1
     2    1   23 1
     3    1   24 1
     4    1   25 1
     5    2    3 1
     6    3    8 ar
     7    3    4 ar
     8    4    5 ar
     9    4   26 1
    10    5    6 ar
    11    5   27 1
    12    6    7 ar
    13    6   28 1
    14    7    8 ar
    15    7    9 1
    16    8   29 1
    17    9   10 2
    18    9   30 1
    19   10   19 1
    20   10   11 1
    21   11   12 2
    22   11   13 1
    23   13   18 ar
    24   13   14 ar
    25   14   15 ar
    26   14   31 1
    27   15   16 ar
    28   15   32 1
    29   16   17 ar
    30   16   22 1
    31   17   18 ar
    32   17   20 1
    33   18   19 1
    34   20   21 1
    35   20   33 1
    36   20   34 1
    37   21   35 1
    38   22   36 1
@<TRIPOS>MOLECULE
ZINC55238307
   34    36     0     0     0
SMALL
USER_CHARGES

@<TRIPOS>ATOM
      1 C1         -0.0184    1.5028    0.0103 C.3       1 <0>        -0.0712
      2 C2          0.0021   -0.0041    0.0020 C.2       1 <0>        -0.0044
      3 C3          0.0078   -0.7881   -1.0859 C.2       1 <0>        -0.0468
      4 O1          0.0271   -2.0694   -0.6575 O.3       1 <0>        -0.1801
      5 C4          0.0330   -2.0518    0.6851 C.2       1 <0>         0.1645
      6 N1          0.0237   -0.8034    1.0860 N.2       1 <0>        -0.4797
      7 S1          0.0564   -3.4685    1.7324 S.3       1 <0>         0.0737
      8 C5          0.0548   -2.7751    3.4087 C.3       1 <0>        -0.0412
      9 C6          0.0741   -3.8959    4.4159 C.ar      1 <0>         0.3809
     10 N2         -1.0706   -4.3805    4.8356 N.ar      1 <0>        -0.5298
     11 C7         -1.0991   -5.3784    5.7312 C.ar      1 <0>         0.1886
     12 C8         -2.3030   -5.9206    6.2011 C.ar      1 <0>        -0.1051
     13 C9         -2.2744   -6.9347    7.1116 C.ar      1 <0>        -0.0730
     14 C10        -1.0668   -7.4415    7.5836 C.ar      1 <0>        -0.1285
     15 C11         0.1228   -6.9370    7.1473 C.ar      1 <0>        -0.0716
     16 C12         0.1284   -5.8959    6.2124 C.ar      1 <0>        -0.1960
     17 C13         1.3308   -5.3313    5.7215 C.ar      1 <0>         0.4824
     18 N3          1.2450   -4.3503    4.8328 N.ar      1 <0>        -0.5850
     19 N4          2.5567   -5.7917    6.1519 N.pl3     1 <0>        -0.8169
     20 C14        -0.0054   -0.3259   -2.5202 C.3       1 <0>        -0.0670
     21 H1          1.0042    1.8801    0.0026 H         1 <0>         0.0764
     22 H2         -0.5455    1.8639   -0.8728 H         1 <0>         0.0763
     23 H3         -0.5286    1.8543    0.9071 H         1 <0>         0.0766
     24 H4          0.9372   -2.1497    3.5440 H         1 <0>         0.1237
     25 H5         -0.8426   -2.1732    3.5520 H         1 <0>         0.1251
     26 H6         -3.2475   -5.5371    5.8445 H         1 <0>         0.1427
     27 H7         -3.2031   -7.3513    7.4726 H         1 <0>         0.1358
     28 H8         -1.0720   -8.2449    8.3054 H         1 <0>         0.1325
     29 H9          1.0536   -7.3378    7.5207 H         1 <0>         0.1280
     30 H10         2.6041   -6.5121    6.7998 H         1 <0>         0.4144
     31 H11         3.3720   -5.3953    5.8069 H         1 <0>         0.4152
     32 H12         1.0190   -0.2002   -2.8709 H         1 <0>         0.0858
     33 H13        -0.5119   -1.0686   -3.1366 H         1 <0>         0.0797
     34 H14        -0.5328    0.6254   -2.5905 H         1 <0>         0.0938
@<TRIPOS>BOND
     1    1    2 1
     2    1   21 1
     3    1   22 1
     4    1   23 1
     5    2    6 1
     6    2    3 2
     7    3    4 1
     8    3   20 1
     9    4    5 1
    10    5    6 2
    11    5    7 1
    12    7    8 1
    13    8    9 1
    14    8   24 1
    15    8   25 1
    16    9   18 ar
    17    9   10 ar
    18   10   11 ar
    19   11   16 ar
    20   11   12 ar
    21   12   13 ar
    22   12   26 1
    23   13   14 ar
    24   13   27 1
    25   14   15 ar
    26   14   28 1
    27   15   16 ar
    28   15   29 1
    29   16   17 ar
    30   17   18 ar
    31   17   19 1
    32   19   30 1
    33   19   31 1
    34   20   32 1
    35   20   33 1
    36   20   34 1
@<TRIPOS>MOLECULE
ZINC00076419
   28    30     0     0     0
SMALL
USER_CHARGES

@<TRIPOS>ATOM
      1 C1         -0.0163    1.3513    0.0095 C.2       1 <0>        -0.1537
      2 C2          1.1833    2.0380    0.0017 C.2       1 <0>        -0.1429
      3 C3          2.3426    1.3358   -0.0131 C.2       1 <0>        -0.1425
      4 S1          1.7535   -0.3495   -0.0166 S.3       1 <0>         0.0382
      5 C4          0.0021   -0.0041    0.0020 C.2       1 <0>        -0.1701
      6 C5          3.7608    1.8454   -0.0244 C.3       1 <0>         0.1591
      7 H1          3.7598    2.9354   -0.0188 H         1 <0>         0.1206
      8 C6          4.4953    1.3314    1.1869 C.2       1 <0>        -0.2328
      9 C7          4.3624    1.7016    2.5183 C.2       1 <0>         0.0320
     10 N1          5.2054    0.9874    3.2258 N.2       1 <0>        -0.1978
     11 N2          5.9041    0.1357    2.3560 N.pl3     1 <0>        -0.4207
     12 H2          6.5888   -0.5029    2.6095 H         1 <0>         0.4577
     13 C8          5.4558    0.3616    1.1107 C.2       1 <0>         0.2953
     14 O1          5.8259   -0.2120   -0.0613 O.3       1 <0>        -0.2216
     15 C9          5.4225    0.3826   -1.2024 C.2       1 <0>         0.4428
     16 C10         4.4722    1.3433   -1.2560 C.2       1 <0>        -0.2569
     17 C11         4.1293    1.9055   -2.5276 C.1       1 <0>         0.2698
     18 N3          3.8573    2.3514   -3.5363 N.1       1 <0>        -0.4272
     19 N4          6.0101   -0.0110   -2.3790 N.pl3     1 <0>        -0.8252
     20 C12         3.4151    2.7426    3.0570 C.3       1 <0>         0.5560
     21 F1          2.1978    2.1383    3.3889 F         1 <0>        -0.1583
     22 F2          3.9697    3.3318    4.1982 F         1 <0>        -0.1622
     23 F3          3.1985    3.7241    2.0839 F         1 <0>        -0.1589
     24 H3         -0.9542    1.8866    0.0258 H         1 <0>         0.1349
     25 H4          1.1967    3.1179    0.0070 H         1 <0>         0.1349
     26 H5         -0.8275   -0.6955    0.0065 H         1 <0>         0.1851
     27 H6          6.6945   -0.6983   -2.3731 H         1 <0>         0.4138
     28 H7          5.7409    0.3983   -3.2162 H         1 <0>         0.4304
@<TRIPOS>BOND
     1    1    5 2
     2    1    2 1
     3    1   24 1
     4    2    3 2
     5    2   25 1
     6    3    4 1
     7    3    6 1
     8    4    5 1
     9    5   26 1
    10    6    7 1
    11    6   16 1
    12    6    8 1
    13    8   13 2
    14    8    9 1
    15    9   10 2
    16    9   20 1
    17   10   11 1
    18   11   12 1
    19   11   13 1
    20   13   14 1
    21   14   15 1
    22   15   16 2
    23   15   19 1
    24   16   17 1
    25   17   18 3
    26   19   27 1
    27   19   28 1
    28   20   21 1
    29   20   22 1
    30   20   23 1
@<TRIPOS>MOLECULE
ZINC09809850
   43    45     0     0     0
SMALL
USER_CHARGES
N'-[2-[[5-(2-chlorophenyl)-4-methyl-1,2,4-triazol-3-yl]sulfanyl]acetyl]-4-fluoro-benzohydrazide
@<TRIPOS>ATOM
      1 C1          9.4299    2.9768    0.0455 C.3       1 <0>         0.0672
      2 N1          8.8855    1.6184   -0.0227 N.pl3     1 <0>        -0.4543
      3 C2          9.5796    0.4373    0.1045 C.2       1 <0>         0.2205
      4 N2          8.7085   -0.5368   -0.0204 N.2       1 <0>        -0.2449
      5 N3          7.5330   -0.0527   -0.2084 N.2       1 <0>        -0.2887
      6 C3          7.5830    1.2605   -0.2249 C.2       1 <0>         0.1412
      7 S1          6.2222    2.3555   -0.4569 S.3       1 <0>         0.0964
      8 C4          4.8823    1.1545   -0.6531 C.3       1 <0>        -0.1422
      9 C5          3.5817    1.8840   -0.8704 C.2       1 <0>         0.5380
     10 O1          3.5625    3.0965   -0.8906 O.2       1 <0>        -0.5227
     11 N4          2.4398    1.1890   -1.0423 N.am      1 <0>        -0.5119
     12 N5          1.2306    1.8672   -1.2443 N.am      1 <0>        -0.5179
     13 C6          0.0888    1.1722   -1.4161 C.2       1 <0>         0.5665
     14 O2          0.1080   -0.0432   -1.3959 O.2       1 <0>        -0.5275
     15 C7         -1.1852    1.8871   -1.6352 C.ar      1 <0>        -0.1442
     16 C8         -1.2111    3.2833   -1.6532 C.ar      1 <0>        -0.0544
     17 C9         -2.4017    3.9453   -1.8632 C.ar      1 <0>        -0.1587
     18 C10        -3.5741    3.2278   -2.0450 C.ar      1 <0>         0.1339
     19 C11        -3.5550    1.8415   -2.0228 C.ar      1 <0>        -0.1597
     20 C12        -2.3689    1.1694   -1.8193 C.ar      1 <0>        -0.0221
     21 F1         -4.7393    3.8817   -2.2449 F         1 <0>        -0.1297
     22 C13        11.0320    0.2925    0.3381 C.ar      1 <0>        -0.0150
     23 C14        11.6621    1.0501    1.3267 C.ar      1 <0>        -0.0865
     24 C15        13.0177    0.9099    1.5400 C.ar      1 <0>        -0.1132
     25 C16        13.7535    0.0203    0.7770 C.ar      1 <0>        -0.0884
     26 C17        13.1365   -0.7337   -0.2048 C.ar      1 <0>        -0.1096
     27 C18        11.7791   -0.6072   -0.4255 C.ar      1 <0>         0.0001
     28 Cl1        11.0045   -1.5597   -1.6529 Cl        1 <0>        -0.0407
     29 H1          9.4870    3.2935    1.0869 H         1 <0>         0.0901
     30 H2         10.4274    2.9909   -0.3938 H         1 <0>         0.0970
     31 H3          8.7805    3.6566   -0.5060 H         1 <0>         0.0986
     32 H4          4.8094    0.5415    0.2452 H         1 <0>         0.1369
     33 H5          5.0891    0.5166   -1.5124 H         1 <0>         0.1366
     34 H6          2.4552    0.2192   -1.0261 H         1 <0>         0.4386
     35 H7          1.2153    2.8369   -1.2604 H         1 <0>         0.4332
     36 H8         -0.2993    3.8432   -1.5069 H         1 <0>         0.1381
     37 H9         -2.4221    5.0250   -1.8818 H         1 <0>         0.1471
     38 H10        -4.4709    1.2874   -2.1657 H         1 <0>         0.1481
     39 H11        -2.3550    0.0896   -1.8026 H         1 <0>         0.1510
     40 H12        11.0895    1.7449    1.9232 H         1 <0>         0.1326
     41 H13        13.5060    1.4957    2.3047 H         1 <0>         0.1381
     42 H14        14.8145   -0.0855    0.9487 H         1 <0>         0.1396
     43 H15        13.7167   -1.4256   -0.7973 H         1 <0>         0.1429
@<TRIPOS>BOND
     1    1    2 1
     2    1   29 1
     3    1   30 1
     4    1   31 1
     5    2    6 1
     6    2    3 1
     7    3    4 2
     8    3   22 1
     9    4    5 1
    10    5    6 2
    11    6    7 1
    12    7    8 1
    13    8    9 1
    14    8   32 1
    15    8   33 1
    16    9   10 2
    17    9   11 am
    18   11   12 1
    19   11   34 1
    20   12   13 am
    21   12   35 1
    22   13   14 2
    23   13   15 1
    24   15   20 ar
    25   15   16 ar
    26   16   17 ar
    27   16   36 1
    28   17   18 ar
    29   17   37 1
    30   18   19 ar
    31   18   21 1
    32   19   20 ar
    33   19   38 1
    34   20   39 1
    35   22   27 ar
    36   22   23 ar
    37   23   24 ar
    38   23   40 1
    39   24   25 ar
    40   24   41 1
    41   25   26 ar
    42   25   42 1
    43   26   27 ar
    44   26   43 1
    45   27   28 1
@<TRIPOS>MOLECULE
ZINC19312374
   49    52     0     0     0
SMALL
USER_CHARGES
[2-(methyl-(3-thienylmethyl)amino)-2-oxo-ethyl] 1-amino-9,10-dioxo-anthracene-2-carboxylate
@<TRIPOS>ATOM
      1 C1         -3.6531    3.9397   -1.9326 C.3       1 <0>         0.0652
      2 N1         -2.6724    4.7739   -1.2336 N.am      1 <0>        -0.6067
      3 C2         -2.3514    4.5063    0.1706 C.3       1 <0>         0.1719
      4 C3         -1.2030    3.5334    0.2467 C.2       1 <0>        -0.1561
      5 C4         -1.4382    2.1717    0.2796 C.2       1 <0>        -0.1478
      6 C5         -0.3831    1.3239    0.3530 C.2       1 <0>        -0.1756
      7 S1          0.9987    2.4543    0.3646 S.3       1 <0>         0.0358
      8 C6          0.0763    3.9804    0.2781 C.2       1 <0>        -0.1384
      9 C7         -2.0655    5.7874   -1.8822 C.2       1 <0>         0.5183
     10 O1         -1.2536    6.4780   -1.3036 O.2       1 <0>        -0.5105
     11 C8         -2.3958    6.0627   -3.3266 C.3       1 <0>         0.0465
     12 O2         -1.6168    7.1956   -3.7938 O.3       1 <0>        -0.3210
     13 C9         -1.7954    7.5743   -5.0745 C.2       1 <0>         0.5326
     14 O3         -2.5805    6.9744   -5.7815 O.2       1 <0>        -0.5172
     15 C10        -1.0377    8.7173   -5.6182 C.ar      1 <0>        -0.2214
     16 C11        -0.1841    9.4453   -4.7906 C.ar      1 <0>         0.0302
     17 C12         0.5300   10.5180   -5.2916 C.ar      1 <0>        -0.1619
     18 C13         0.4059   10.8837   -6.6290 C.ar      1 <0>        -0.0167
     19 C14        -0.4501   10.1606   -7.4788 C.ar      1 <0>        -0.2476
     20 C15        -1.1717    9.0699   -6.9738 C.ar      1 <0>         0.3493
     21 N2         -2.0105    8.3499   -7.7992 N.pl3     1 <0>        -0.8459
     22 C16        -0.5845   10.5445   -8.8941 C.2       1 <0>         0.4550
     23 O4         -1.3249    9.9173   -9.6265 O.2       1 <0>        -0.4568
     24 C17         0.1814   11.6923   -9.4243 C.ar      1 <0>        -0.1145
     25 C18         0.0594   12.0602  -10.7610 C.ar      1 <0>        -0.0684
     26 C19         0.7806   13.1358  -11.2490 C.ar      1 <0>        -0.0976
     27 C20         1.6235   13.8497  -10.4167 C.ar      1 <0>        -0.0978
     28 C21         1.7567   13.4977   -9.0853 C.ar      1 <0>        -0.0674
     29 C22         1.0384   12.4180   -8.5779 C.ar      1 <0>        -0.1199
     30 C23         1.1739   12.0336   -7.1581 C.2       1 <0>         0.4306
     31 O5          1.9137   12.6601   -6.4259 O.2       1 <0>        -0.4156
     32 H1         -3.7601    4.2906   -2.9696 H         1 <0>         0.0794
     33 H2         -4.6241    4.0081   -1.4203 H         1 <0>         0.0719
     34 H3         -3.3114    2.8941   -1.9327 H         1 <0>         0.0698
     35 H4         -2.0694    5.4461    0.6678 H         1 <0>         0.0975
     36 H5         -3.2306    4.0757    0.6721 H         1 <0>         0.0911
     37 H6         -2.4477    1.7890    0.2501 H         1 <0>         0.1325
     38 H7         -0.3792    0.2446    0.3901 H         1 <0>         0.1856
     39 H8          0.4425    4.9962    0.2562 H         1 <0>         0.1891
     40 H9         -2.1551    5.1771   -3.9330 H         1 <0>         0.1063
     41 H10        -3.4677    6.2910   -3.4205 H         1 <0>         0.1072
     42 H11        -0.0802    9.1698   -3.7515 H         1 <0>         0.1535
     43 H12         1.1883   11.0754   -4.6415 H         1 <0>         0.1491
     44 H13        -2.1124    8.6289   -8.8583 H         1 <0>         0.4336
     45 H14        -2.5775    7.4968   -7.3982 H         1 <0>         0.4345
     46 H15        -0.5970   11.5071  -11.4164 H         1 <0>         0.1445
     47 H16         0.6848   13.4195  -12.2867 H         1 <0>         0.1392
     48 H17         2.1816   14.6871  -10.8087 H         1 <0>         0.1395
     49 H18         2.4163   14.0595   -8.4406 H         1 <0>         0.1451
@<TRIPOS>BOND
     1    1    2 1
     2    1   32 1
     3    1   33 1
     4    1   34 1
     5    2    3 1
     6    2    9 am
     7    3    4 1
     8    3   35 1
     9    3   36 1
    10    4    8 2
    11    4    5 1
    12    5    6 2
    13    5   37 1
    14    6    7 1
    15    6   38 1
    16    7    8 1
    17    8   39 1
    18    9   10 2
    19    9   11 1
    20   11   12 1
    21   11   40 1
    22   11   41 1
    23   12   13 1
    24   13   14 2
    25   13   15 1
    26   15   20 ar
    27   15   16 ar
    28   16   17 ar
    29   16   42 1
    30   17   18 ar
    31   17   43 1
    32   18   30 1
    33   18   19 ar
    34   19   20 ar
    35   19   22 1
    36   20   21 1
    37   21   44 1
    38   21   45 1
    39   22   23 2
    40   22   24 1
    41   24   29 ar
    42   24   25 ar
    43   25   26 ar
    44   25   46 1
    45   26   27 ar
    46   26   47 1
    47   27   28 ar
    48   27   48 1
    49   28   29 ar
    50   28   49 1
    51   29   30 1
    52   30   31 2
@<TRIPOS>MOLECULE
ZINC31170180
   61    63     0     0     0
SMALL
USER_CHARGES
[(1S,3R,3aR,4R,8aS)-1-acetoxy-3-hydroxy-3-isopropyl-6,8a-dimethyl-7-oxo-2,3a,4,8-tetrahydro-1H-azulen-4-yl] 4-hydroxybenzoate
@<TRIPOS>ATOM
      1 C1         -4.4062    9.2290   -1.5509 C.3       1 <0>        -0.1103
      2 C2         -4.0476    7.9106   -0.9151 C.2       1 <0>        -0.1770
      3 C3         -3.1126    7.1403   -1.4786 C.2       1 <0>        -0.1297
      4 C4         -2.7473    5.8274   -0.8133 C.3       1 <0>         0.1100
      5 H1         -3.6237    5.1744   -0.6889 H         1 <0>         0.1139
      6 C5         -2.0925    6.1588    0.5170 C.3       1 <0>        -0.0718
      7 H2         -1.6201    7.1365    0.3408 H         1 <0>         0.1083
      8 C6         -3.1232    6.1824    1.6477 C.3       1 <0>        -0.0217
      9 C7         -3.9575    7.4482    1.6148 C.3       1 <0>        -0.1591
     10 C8         -4.7305    7.4907    0.3148 C.2       1 <0>         0.4016
     11 O1         -5.9031    7.1804    0.2890 O.2       1 <0>        -0.4326
     12 C9         -2.2533    6.0672    2.9133 C.3       1 <0>         0.0992
     13 H3         -1.8854    7.0287    3.3007 H         1 <0>         0.1020
     14 C10        -1.1459    5.0657    2.5020 C.3       1 <0>        -0.1811
     15 C11        -1.0602    5.1147    0.9602 C.3       1 <0>         0.1771
     16 C12        -1.4057    3.7466    0.3687 C.3       1 <0>        -0.1593
     17 C13        -0.1478    2.8767    0.3266 C.3       1 <0>        -0.1505
     18 C14        -2.4661    3.0681    1.2382 C.3       1 <0>        -0.3600
     19 O2          0.2501    5.5126    0.5518 O.3       1 <0>        -0.5717
     20 O3         -3.0306    5.5427    4.0218 O.3       1 <0>        -0.3533
     21 C15        -2.6764    5.9372    5.2550 C.2       1 <0>         0.4583
     22 O4         -1.7475    6.6956    5.4032 O.2       1 <0>        -0.5113
     23 C16        -3.4372    5.4341    6.4546 C.3       1 <0>        -0.1529
     24 C17        -4.0385    4.9613    1.5375 C.3       1 <0>        -0.3742
     25 O5         -1.8175    5.0915   -1.6513 O.3       1 <0>        -0.3209
     26 C18        -2.3458    4.2141   -2.5270 C.2       1 <0>         0.5076
     27 O6         -3.5505    4.0680   -2.5886 O.2       1 <0>        -0.5010
     28 C19        -1.4619    3.4312   -3.4104 C.ar      1 <0>        -0.1780
     29 C20        -0.0760    3.6020   -3.3452 C.ar      1 <0>        -0.0142
     30 C21         0.7453    2.8732   -4.1758 C.ar      1 <0>        -0.1779
     31 C22         0.1981    1.9689   -5.0787 C.ar      1 <0>         0.1991
     32 C23        -1.1795    1.7957   -5.1466 C.ar      1 <0>        -0.2294
     33 C24        -2.0080    2.5204   -4.3196 C.ar      1 <0>        -0.0095
     34 O7          1.0111    1.2529   -5.8959 O.3       1 <0>        -0.5026
     35 H4         -3.7991    9.3766   -2.4563 H         1 <0>         0.0750
     36 H5         -4.2086   10.0447   -0.8399 H         1 <0>         0.0748
     37 H6         -5.4726    9.2280   -1.8206 H         1 <0>         0.0769
     38 H7         -2.6223    7.4622   -2.4092 H         1 <0>         0.1440
     39 H8         -4.6568    7.4486    2.4639 H         1 <0>         0.1027
     40 H9         -3.2966    8.3248    1.6837 H         1 <0>         0.0995
     41 H10        -0.1914    5.3667    2.9584 H         1 <0>         0.0850
     42 H11        -1.4162    4.0574    2.8487 H         1 <0>         0.1028
     43 H12        -1.7961    3.8762   -0.6515 H         1 <0>         0.1215
     44 H13        -0.3963    1.8931   -0.0987 H         1 <0>         0.0562
     45 H14         0.2426    2.7471    1.3468 H         1 <0>         0.0507
     46 H15         0.6146    3.3645   -0.2986 H         1 <0>         0.0638
     47 H16        -2.7145    2.0845    0.8129 H         1 <0>         0.0624
     48 H17        -3.3705    3.6935    1.2684 H         1 <0>         0.2531
     49 H18        -2.0757    2.9385    2.2584 H         1 <0>         0.0716
     50 H19         1.1165    4.8773    0.7880 H         1 <0>         0.4033
     51 H20        -3.0040    5.8635    7.3700 H         1 <0>         0.1032
     52 H21        -3.3707    4.3369    6.4972 H         1 <0>         0.1021
     53 H22        -4.4921    5.7346    6.3722 H         1 <0>         0.1023
     54 H23        -4.7776    4.9824    2.3520 H         1 <0>         0.0814
     55 H24        -3.4364    4.0438    1.6124 H         1 <0>         0.2702
     56 H25        -4.5596    4.9799    0.5689 H         1 <0>         0.0654
     57 H26         0.3499    4.3046   -2.6442 H         1 <0>         0.1477
     58 H27         1.8161    3.0042   -4.1257 H         1 <0>         0.1386
     59 H28        -1.6005    1.0918   -5.8492 H         1 <0>         0.1377
     60 H29        -3.0782    2.3858   -4.3734 H         1 <0>         0.1398
     61 H30         0.5798    0.5369   -6.6110 H         1 <0>         0.4414
@<TRIPOS>BOND
     1    1    2 1
     2    1   35 1
     3    1   36 1
     4    1   37 1
     5    2   10 1
     6    2    3 2
     7    3    4 1
     8    3   38 1
     9    4    5 1
    10    4    6 1
    11    4   25 1
    12    6    7 1
    13    6   15 1
    14    6    8 1
    15    8    9 1
    16    8   12 1
    17    8   24 1
    18    9   10 1
    19    9   39 1
    20    9   40 1
    21   10   11 2
    22   12   13 1
    23   12   14 1
    24   12   20 1
    25   14   15 1
    26   14   41 1
    27   14   42 1
    28   15   16 1
    29   15   19 1
    30   16   17 1
    31   16   18 1
    32   16   43 1
    33   17   44 1
    34   17   45 1
    35   17   46 1
    36   18   47 1
    37   18   48 1
    38   18   49 1
    39   19   50 1
    40   20   21 1
    41   21   22 2
    42   21   23 1
    43   23   51 1
    44   23   52 1
    45   23   53 1
    46   24   54 1
    47   24   55 1
    48   24   56 1
    49   25   26 1
    50   26   27 2
    51   26   28 1
    52   28   33 ar
    53   28   29 ar
    54   29   30 ar
    55   29   57 1
    56   30   31 ar
    57   30   58 1
    58   31   32 ar
    59   31   34 1
    60   32   33 ar
    61   32   59 1
    62   33   60 1
    63   34   61 1
@<TRIPOS>MOLECULE
ZINC42178590
   50    51     0     0     0
SMALL
USER_CHARGES

@<TRIPOS>ATOM
      1 C1         -0.0187    1.5258    0.0104 C.3       1 <0>        -0.1546
      2 C2          0.0021   -0.0041    0.0020 C.3       1 <0>        -0.0934
      3 C3          0.7421   -0.5109    1.2415 C.3       1 <0>        -0.1577
      4 C4         -1.4333   -0.5336    0.0129 C.3       1 <0>         0.2839
      5 C5         -2.2094    0.0724   -1.1582 C.3       1 <0>        -0.1677
      6 C6         -2.0846   -0.1600    1.2790 C.1       1 <0>         0.2031
      7 N1         -2.5872    0.1284    2.2561 N.1       1 <0>        -0.4071
      8 N2         -1.4164   -1.9929   -0.1155 N.am      1 <0>        -0.7166
      9 C7         -2.5748   -2.6816   -0.1296 C.2       1 <0>         0.5037
     10 O1         -3.6313   -2.0933   -0.0360 O.2       1 <0>        -0.5103
     11 C8         -2.5575   -4.1827   -0.2617 C.3       1 <0>         0.0999
     12 N3         -3.9319   -4.6898   -0.2513 N.am      1 <0>        -0.5598
     13 C9         -4.5997   -5.0440    0.8644 C.2       1 <0>         0.5428
     14 O2         -4.1920   -5.0046    2.0055 O.2       1 <0>        -0.4522
     15 C10        -5.9670   -5.5010    0.3959 C.3       1 <0>         0.1710
     16 N4         -5.9049   -5.3357   -1.0666 N.am      1 <0>        -0.7160
     17 C11        -4.6810   -4.8531   -1.3477 C.2       1 <0>         0.7129
     18 O3         -4.2976   -4.5972   -2.4722 O.2       1 <0>        -0.5300
     19 C12        -7.0637   -4.6159    0.9916 C.3       1 <0>        -0.1468
     20 C13        -6.1955   -6.9461    0.7570 C.ar      1 <0>        -0.0985
     21 C14        -5.6005   -7.4791    1.8854 C.ar      1 <0>        -0.0769
     22 C15        -5.8101   -8.8045    2.2165 C.ar      1 <0>        -0.1110
     23 C16        -6.6151   -9.5972    1.4196 C.ar      1 <0>        -0.0611
     24 C17        -7.2106   -9.0641    0.2920 C.ar      1 <0>        -0.1799
     25 C18        -7.0044   -7.7372   -0.0369 C.ar      1 <0>        -0.0463
     26 C19        -8.0877   -9.9283   -0.5770 C.3       1 <0>         0.5090
     27 F1         -8.1460  -11.2198   -0.0424 F         1 <0>        -0.1745
     28 F2         -9.3760   -9.3851   -0.6256 F         1 <0>        -0.1743
     29 F3         -7.5552   -9.9822   -1.8695 F         1 <0>        -0.1742
     30 H1          1.0039    1.9031    0.0027 H         1 <0>         0.0711
     31 H2         -0.5459    1.8868   -0.8726 H         1 <0>         0.0699
     32 H3         -0.5289    1.8773    0.9072 H         1 <0>         0.0572
     33 H4          0.5123   -0.3556   -0.8948 H         1 <0>         0.1026
     34 H5          1.7647   -0.1336    1.2338 H         1 <0>         0.0712
     35 H6          0.2319   -0.1594    2.1383 H         1 <0>         0.0572
     36 H7          0.7568   -1.6008    1.2356 H         1 <0>         0.0601
     37 H8         -1.7271   -0.2043   -2.0957 H         1 <0>         0.0813
     38 H9         -3.2320   -0.3049   -1.1504 H         1 <0>         0.0853
     39 H10        -2.2220    1.1581   -1.0626 H         1 <0>         0.0800
     40 H11        -0.5715   -2.4635   -0.1904 H         1 <0>         0.4123
     41 H12        -2.0752   -4.4594   -1.1992 H         1 <0>         0.1359
     42 H13        -2.0046   -4.6145    0.5726 H         1 <0>         0.1305
     43 H14        -6.6101   -5.5335   -1.7026 H         1 <0>         0.4424
     44 H15        -6.9019   -3.5820    0.6865 H         1 <0>         0.0797
     45 H16        -8.0366   -4.9524    0.6335 H         1 <0>         0.0852
     46 H17        -7.0338   -4.6827    2.0791 H         1 <0>         0.0883
     47 H18        -4.9717   -6.8599    2.5080 H         1 <0>         0.1503
     48 H19        -5.3448   -9.2211    3.0977 H         1 <0>         0.1433
     49 H20        -6.7783  -10.6331    1.6779 H         1 <0>         0.1444
     50 H21        -7.4728   -7.3196   -0.9159 H         1 <0>         0.1346
@<TRIPOS>BOND
     1    1    2 1
     2    1   30 1
     3    1   31 1
     4    1   32 1
     5    2    3 1
     6    2    4 1
     7    2   33 1
     8    3   34 1
     9    3   35 1
    10    3   36 1
    11    4    5 1
    12    4    6 1
    13    4    8 1
    14    5   37 1
    15    5   38 1
    16    5   39 1
    17    6    7 3
    18    8    9 am
    19    8   40 1
    20    9   10 2
    21    9   11 1
    22   11   12 1
    23   11   41 1
    24   11   42 1
    25   12   17 am
    26   12   13 am
    27   13   14 2
    28   13   15 1
    29   15   16 1
    30   15   19 1
    31   15   20 1
    32   16   17 am
    33   16   43 1
    34   17   18 2
    35   19   44 1
    36   19   45 1
    37   19   46 1
    38   20   25 ar
    39   20   21 ar
    40   21   22 ar
    41   21   47 1
    42   22   23 ar
    43   22   48 1
    44   23   24 ar
    45   23   49 1
    46   24   25 ar
    47   24   26 1
    48   25   50 1
    49   26   27 1
    50   26   28 1
    51   26   29 1
@<TRIPOS>MOLECULE
ZINC63731264
   51    53     0     0     0
SMALL
USER_CHARGES

@<TRIPOS>ATOM
      1 C1         -0.0187    1.5258    0.0104 C.3       1 <0>        -0.1540
      2 C2          0.0021   -0.0041    0.0020 C.3       1 <0>        -0.1321
      3 C3          0.7182   -0.4975   -1.2568 C.3       1 <0>         0.1411
      4 H1          0.2444   -0.0644   -2.1377 H         1 <0>         0.0921
      5 C4          0.6303   -2.0233   -1.3286 C.3       1 <0>        -0.1662
      6 N1          2.1249   -0.0911   -1.2094 N.am      1 <0>        -0.7166
      7 C5          2.8241    0.0515   -2.3527 C.2       1 <0>         0.5389
      8 O1          2.2887   -0.1566   -3.4209 O.2       1 <0>        -0.5109
      9 C6          4.2711    0.4696   -2.3039 C.3       1 <0>        -0.1557
     10 S1          4.9280    0.5724   -3.9917 S.3       1 <0>        -0.0749
     11 C7          6.6542    1.0799   -3.7606 C.3       1 <0>         0.3101
     12 H2          7.1292    1.1666   -4.7378 H         1 <0>         0.1837
     13 N2          7.3512    0.0493   -2.9848 N.2       1 <0>        -0.3084
     14 C8          7.4200    0.1369   -1.6964 C.2       1 <0>         0.2312
     15 C9          6.8966    1.3451   -0.9710 C.2       1 <0>        -0.2225
     16 C10         7.1156    1.1031    0.3250 C.2       1 <0>         0.0481
     17 N3          7.7297   -0.0947    0.4295 N.2       1 <0>        -0.1155
     18 N4          7.9229   -0.6542   -0.7170 N.2       1 <0>        -0.1216
     19 C11         6.7428    2.0094    1.4699 C.3       1 <0>        -0.0979
     20 C12         6.3210    2.4628   -1.7477 C.2       1 <0>         0.4735
     21 N5          5.5732    3.4018   -1.2357 N.2       1 <0>        -0.6594
     22 N6          6.6787    2.3903   -3.1042 N.pl3     1 <0>        -0.5882
     23 C13         7.0470    3.5399   -3.8093 C.ar      1 <0>         0.1506
     24 C14         6.0819    4.2924   -4.4662 C.ar      1 <0>        -0.0759
     25 C15         6.4495    5.4282   -5.1623 C.ar      1 <0>        -0.0361
     26 C16         7.7778    5.8156   -5.2049 C.ar      1 <0>        -0.0917
     27 C17         8.7400    5.0681   -4.5518 C.ar      1 <0>        -0.1027
     28 C18         8.3779    3.9350   -3.8496 C.ar      1 <0>        -0.0709
     29 C19         9.4271    3.1246   -3.1330 C.3       1 <0>        -0.1145
     30 Cl1         5.2446    6.3697   -5.9844 Cl        1 <0>        -0.0588
     31 H3          1.0039    1.9031    0.0027 H         1 <0>         0.0522
     32 H4         -0.5459    1.8868   -0.8726 H         1 <0>         0.0572
     33 H5         -0.5289    1.8773    0.9072 H         1 <0>         0.0594
     34 H6          0.5293   -0.3651    0.8851 H         1 <0>         0.0691
     35 H7         -1.0205   -0.3814    0.0098 H         1 <0>         0.0831
     36 H8          1.1041   -2.4564   -0.4477 H         1 <0>         0.0582
     37 H9         -0.4163   -2.3257   -1.3639 H         1 <0>         0.0702
     38 H10         1.1405   -2.3748   -2.2254 H         1 <0>         0.0620
     39 H11         2.5531    0.0754   -0.3551 H         1 <0>         0.3996
     40 H12         4.3517    1.4443   -1.8227 H         1 <0>         0.1173
     41 H13         4.8424   -0.2644   -1.7357 H         1 <0>         0.1065
     42 H14         5.7378    1.7651    1.8142 H         1 <0>         0.0971
     43 H15         7.4504    1.8718    2.2875 H         1 <0>         0.0994
     44 H16         6.7704    3.0466    1.1361 H         1 <0>         0.0813
     45 H17         5.3642    3.3929   -0.2886 H         1 <0>         0.3610
     46 H18         5.0456    3.9901   -4.4333 H         1 <0>         0.1428
     47 H19         8.0630    6.7034   -5.7498 H         1 <0>         0.1397
     48 H20         9.7755    5.3729   -4.5869 H         1 <0>         0.1395
     49 H21         9.8221    2.3644   -3.8069 H         1 <0>         0.0763
     50 H22        10.2360    3.7806   -2.8113 H         1 <0>         0.0753
     51 H23         8.9822    2.6427   -2.2624 H         1 <0>         0.0580
@<TRIPOS>BOND
     1    1    2 1
     2    1   31 1
     3    1   32 1
     4    1   33 1
     5    2    3 1
     6    2   34 1
     7    2   35 1
     8    3    4 1
     9    3    5 1
    10    3    6 1
    11    5   36 1
    12    5   37 1
    13    5   38 1
    14    6    7 am
    15    6   39 1
    16    7    8 2
    17    7    9 1
    18    9   10 1
    19    9   40 1
    20    9   41 1
    21   10   11 1
    22   11   12 1
    23   11   22 1
    24   11   13 1
    25   13   14 2
    26   14   18 1
    27   14   15 1
    28   15   16 2
    29   15   20 1
    30   16   17 1
    31   16   19 1
    32   17   18 2
    33   19   42 1
    34   19   43 1
    35   19   44 1
    36   20   21 2
    37   20   22 1
    38   21   45 1
    39   22   23 1
    40   23   28 ar
    41   23   24 ar
    42   24   25 ar
    43   24   46 1
    44   25   26 ar
    45   25   30 1
    46   26   27 ar
    47   26   47 1
    48   27   28 ar
    49   27   48 1
    50   28   29 1
    51   29   49 1
    52   29   50 1
    53   29   51 1
@<TRIPOS>MOLECULE
ZINC08888898
   51    53     0     0     0
SMALL
USER_CHARGES
N-[1-(3,4-dichlorophenyl)ethyl]-2-[4-(4-methoxyphenyl)-4-methyl-2,5-dioxo-imidazolidin-1-yl]-acetamide
@<TRIPOS>ATOM
      1 C1          3.8919   -3.4725   -3.6265 C.3       1 <0>        -0.1606
      2 C2          2.5233   -3.9013   -3.0934 C.3       1 <0>         0.1867
      3 H1          1.7392   -3.4573   -3.7066 H         1 <0>         0.1027
      4 C3          2.4120   -5.4033   -3.1457 C.ar      1 <0>        -0.0770
      5 C4          3.0042   -6.1746   -2.1629 C.ar      1 <0>        -0.0988
      6 C5          2.8981   -7.5519   -2.2066 C.ar      1 <0>        -0.0918
      7 C6          2.2085   -8.1600   -3.2404 C.ar      1 <0>        -0.0306
      8 C7          1.6204   -7.3879   -4.2276 C.ar      1 <0>        -0.0264
      9 C8          1.7228   -6.0091   -4.1792 C.ar      1 <0>        -0.0861
     10 Cl1         0.7543   -8.1495   -5.5252 Cl        1 <0>        -0.0411
     11 Cl2         2.0804   -9.8903   -3.2994 Cl        1 <0>        -0.0427
     12 N1          2.3752   -3.4486   -1.7080 N.am      1 <0>        -0.7225
     13 C9          1.9402   -2.1993   -1.4502 C.2       1 <0>         0.5043
     14 O1          1.6715   -1.4498   -2.3651 O.2       1 <0>        -0.5179
     15 C10         1.7878   -1.7336   -0.0251 C.3       1 <0>         0.0984
     16 N2          1.3043   -0.3507   -0.0123 N.am      1 <0>        -0.5603
     17 C11         0.0021   -0.0041    0.0020 C.2       1 <0>         0.5423
     18 O2         -0.9541   -0.7494    0.0077 O.2       1 <0>        -0.4568
     19 C12        -0.0185    1.5116    0.0104 C.3       1 <0>         0.1757
     20 N3          1.4085    1.8773   -0.0013 N.am      1 <0>        -0.7147
     21 C13         2.1011    0.7241   -0.0141 C.2       1 <0>         0.7120
     22 O3          3.3150    0.6652   -0.0264 O.2       1 <0>        -0.5359
     23 C14        -0.6976    2.0338    1.2780 C.3       1 <0>        -0.1446
     24 C15        -0.7111    2.0392   -1.2197 C.ar      1 <0>        -0.1365
     25 C16        -1.7121    1.2978   -1.8196 C.ar      1 <0>        -0.0624
     26 C17        -2.3525    1.7818   -2.9439 C.ar      1 <0>        -0.2026
     27 C18        -1.9822    3.0076   -3.4779 C.ar      1 <0>         0.1398
     28 C19        -0.9736    3.7470   -2.8774 C.ar      1 <0>        -0.1501
     29 C20        -0.3406    3.2614   -1.7496 C.ar      1 <0>        -0.0546
     30 O4         -2.6062    3.4830   -4.5876 O.3       1 <0>        -0.3151
     31 C21        -3.6353    2.6682   -5.1525 C.3       1 <0>         0.0250
     32 H2          4.0021   -3.8093   -4.6573 H         1 <0>         0.0716
     33 H3          3.9724   -2.3861   -3.5887 H         1 <0>         0.0702
     34 H4          4.6760   -3.9165   -3.0133 H         1 <0>         0.0632
     35 H5          3.5466   -5.7004   -1.3583 H         1 <0>         0.1386
     36 H6          3.3574   -8.1536   -1.4363 H         1 <0>         0.1470
     37 H7          1.2646   -5.4062   -4.9492 H         1 <0>         0.1459
     38 H8          2.5901   -4.0480   -0.9763 H         1 <0>         0.4023
     39 H9          2.7526   -1.7859    0.4794 H         1 <0>         0.1316
     40 H10         1.0724   -2.3734    0.4917 H         1 <0>         0.1288
     41 H11         1.7768    2.7746   -0.0003 H         1 <0>         0.4412
     42 H12        -0.1586    1.6729    2.1540 H         1 <0>         0.0727
     43 H13        -0.6913    3.1237    1.2710 H         1 <0>         0.0844
     44 H14        -1.7269    1.6767    1.3122 H         1 <0>         0.0872
     45 H15        -1.9965    0.3413   -1.4065 H         1 <0>         0.1410
     46 H16        -3.1371    1.2042   -3.4098 H         1 <0>         0.1328
     47 H17        -0.6834    4.7013   -3.2913 H         1 <0>         0.1364
     48 H18         0.4447    3.8366   -1.2818 H         1 <0>         0.1293
     49 H19        -3.2175    1.7039   -5.4419 H         1 <0>         0.0574
     50 H20        -4.4239    2.5160   -4.4156 H         1 <0>         0.0580
     51 H21        -4.0494    3.1630   -6.0310 H         1 <0>         0.1029
@<TRIPOS>BOND
     1    1    2 1
     2    1   32 1
     3    1   33 1
     4    1   34 1
     5    2    3 1
     6    2    4 1
     7    2   12 1
     8    4    9 ar
     9    4    5 ar
    10    5    6 ar
    11    5   35 1
    12    6    7 ar
    13    6   36 1
    14    7    8 ar
    15    7   11 1
    16    8    9 ar
    17    8   10 1
    18    9   37 1
    19   12   13 am
    20   12   38 1
    21   13   14 2
    22   13   15 1
    23   15   16 1
    24   15   39 1
    25   15   40 1
    26   16   21 am
    27   16   17 am
    28   17   18 2
    29   17   19 1
    30   19   20 1
    31   19   23 1
    32   19   24 1
    33   20   21 am
    34   20   41 1
    35   21   22 2
    36   23   42 1
    37   23   43 1
    38   23   44 1
    39   24   29 ar
    40   24   25 ar
    41   25   26 ar
    42   25   45 1
    43   26   27 ar
    44   26   46 1
    45   27   28 ar
    46   27   30 1
    47   28   29 ar
    48   28   47 1
    49   29   48 1
    50   30   31 1
    51   31   49 1
    52   31   50 1
    53   31   51 1
@<TRIPOS>MOLECULE
ZINC11600241
   52    55     0     0     0
SMALL
USER_CHARGES
N-(5-chloro-2,4-dimethoxy-phenyl)-3-(oxoBLAHyl)-propanamide
@<TRIPOS>ATOM
      1 C1          2.1094    5.2990   -0.2170 C.3       1 <0>         0.0264
      2 O1          1.0272    5.9191    0.4805 O.3       1 <0>        -0.3120
      3 C2          0.0671    5.0989    0.9851 C.ar      1 <0>         0.1460
      4 C3          0.1653    3.7279    0.8124 C.ar      1 <0>        -0.2690
      5 C4         -0.8146    2.8929    1.3271 C.ar      1 <0>         0.1625
      6 C5         -1.8968    3.4299    2.0109 C.ar      1 <0>        -0.0847
      7 C6         -1.9946    4.7973    2.1894 C.ar      1 <0>        -0.0485
      8 C7         -1.0163    5.6360    1.6759 C.ar      1 <0>         0.0943
      9 N1         -1.1184    7.0242    1.8519 N.am      1 <0>        -0.6565
     10 C8         -1.8249    7.5222    2.8859 C.2       1 <0>         0.5131
     11 O2         -2.2882    6.7736    3.7204 O.2       1 <0>        -0.5230
     12 C9         -2.0395    9.0090    3.0053 C.3       1 <0>        -0.1225
     13 C10        -2.8668    9.3060    4.2577 C.3       1 <0>        -0.0603
     14 C11        -3.0813   10.7929    4.3771 C.2       1 <0>         0.4109
     15 N2         -3.7950   11.2816    5.4237 N.am      1 <0>        -0.6343
     16 H1         -4.1576   10.6664    6.0802 H         1 <0>         0.4230
     17 C12        -4.0102   12.6025    5.5686 C.2       1 <0>         0.5555
     18 O3         -4.6530   13.0256    6.5139 O.2       1 <0>        -0.5184
     19 C13        -3.4702   13.5031    4.5929 C.2       1 <0>        -0.2482
     20 C14        -3.5760   14.9608    4.5461 C.2       1 <0>        -0.0501
     21 C15        -2.9735   15.5854    3.5123 C.2       1 <0>        -0.1694
     22 S1         -2.2408   14.2860    2.5547 S.3       1 <0>         0.1478
     23 C16        -2.7475   12.9054    3.5484 C.2       1 <0>         0.1057
     24 N3         -2.5727   11.5889    3.4748 N.2       1 <0>        -0.4883
     25 C17        -2.9362   17.0580    3.2388 C.3       1 <0>        -0.0372
     26 C18        -4.0022   17.7393    4.1089 C.3       1 <0>        -0.1153
     27 C19        -3.8733   17.2171    5.5428 C.3       1 <0>        -0.1232
     28 C20        -4.3281   15.7588    5.6076 C.3       1 <0>        -0.0602
     29 Cl1        -3.1259    2.3825    2.6481 Cl        1 <0>        -0.0481
     30 O4         -0.7184    1.5472    1.1571 O.3       1 <0>        -0.2998
     31 C21         0.4182    1.0637    0.4385 C.3       1 <0>         0.0240
     32 H2          1.7207    4.7433   -1.0704 H         1 <0>         0.0585
     33 H3          2.8023    6.0643   -0.5668 H         1 <0>         0.1064
     34 H4          2.6305    4.6164    0.4542 H         1 <0>         0.0583
     35 H5          1.0046    3.3096    0.2766 H         1 <0>         0.1478
     36 H6         -2.8351    5.2130    2.7252 H         1 <0>         0.1709
     37 H7         -0.6804    7.6255    1.2294 H         1 <0>         0.4191
     38 H8         -1.0746    9.5105    3.0799 H         1 <0>         0.1125
     39 H9         -2.5702    9.3714    2.1249 H         1 <0>         0.1136
     40 H10        -3.8317    8.8045    4.1831 H         1 <0>         0.1164
     41 H11        -2.3360    8.9436    5.1381 H         1 <0>         0.1162
     42 H12        -1.9513   17.4528    3.4884 H         1 <0>         0.0862
     43 H13        -3.1490   17.2413    2.1856 H         1 <0>         0.0845
     44 H14        -3.8484   18.8183    4.0975 H         1 <0>         0.0764
     45 H15        -4.9940   17.5050    3.7223 H         1 <0>         0.0694
     46 H16        -2.8332   17.2865    5.8613 H         1 <0>         0.0661
     47 H17        -4.4957   17.8192    6.2048 H         1 <0>         0.0720
     48 H18        -5.3997   15.7017    5.4165 H         1 <0>         0.0790
     49 H19        -4.1088   15.3512    6.5945 H         1 <0>         0.0858
     50 H20         0.3724   -0.0235    0.3749 H         1 <0>         0.1062
     51 H21         1.3295    1.3591    0.9586 H         1 <0>         0.0572
     52 H22         0.4199    1.4867   -0.5661 H         1 <0>         0.0574
@<TRIPOS>BOND
     1    1    2 1
     2    1   32 1
     3    1   33 1
     4    1   34 1
     5    2    3 1
     6    3    8 ar
     7    3    4 ar
     8    4    5 ar
     9    4   35 1
    10    5    6 ar
    11    5   30 1
    12    6    7 ar
    13    6   29 1
    14    7    8 ar
    15    7   36 1
    16    8    9 1
    17    9   10 am
    18    9   37 1
    19   10   11 2
    20   10   12 1
    21   12   13 1
    22   12   38 1
    23   12   39 1
    24   13   14 1
    25   13   40 1
    26   13   41 1
    27   14   24 2
    28   14   15 1
    29   15   16 1
    30   15   17 am
    31   17   18 2
    32   17   19 1
    33   19   23 2
    34   19   20 1
    35   20   28 1
    36   20   21 2
    37   21   22 1
    38   21   25 1
    39   22   23 1
    40   23   24 1
    41   25   26 1
    42   25   42 1
    43   25   43 1
    44   26   27 1
    45   26   44 1
    46   26   45 1
    47   27   28 1
    48   27   46 1
    49   27   47 1
    50   28   48 1
    51   28   49 1
    52   30   31 1
    53   31   50 1
    54   31   51 1
    55   31   52 1
@<TRIPOS>MOLECULE
ZINC16859635
   42    44     0     0     0
SMALL
USER_CHARGES
(2S)-N-[4-chloro-2-(trifluoromethyl)phenyl]-2-[1-(4-hydroxyphenyl)tetrazol-5-yl]sulfanyl-propanamide
@<TRIPOS>ATOM
      1 C1         -0.7440    1.5960    1.2690 C.3       1 <0>        -0.1502
      2 C2         -0.0215    1.0945    0.0170 C.3       1 <0>        -0.1287
      3 H1         -0.0074    0.0046    0.0177 H         1 <0>         0.1369
      4 C3         -0.7434    1.5868   -1.2107 C.2       1 <0>         0.5462
      5 O1         -0.3254    2.5527   -1.8136 O.2       1 <0>        -0.4899
      6 N1         -1.8536    0.9539   -1.6389 N.am      1 <0>        -0.6643
      7 C4         -2.5893    1.4774   -2.7084 C.ar      1 <0>         0.2063
      8 C5         -2.5268    2.8344   -2.9975 C.ar      1 <0>        -0.1204
      9 C6         -3.2535    3.3484   -4.0532 C.ar      1 <0>        -0.0513
     10 C7         -4.0438    2.5126   -4.8229 C.ar      1 <0>        -0.0559
     11 C8         -4.1078    1.1603   -4.5370 C.ar      1 <0>        -0.0402
     12 C9         -3.3783    0.6402   -3.4857 C.ar      1 <0>        -0.2059
     13 C10        -3.4437   -0.8338   -3.1787 C.3       1 <0>         0.5111
     14 F1         -4.2966   -1.4629   -4.0918 F         1 <0>        -0.1673
     15 F2         -2.1631   -1.3882   -3.2785 F         1 <0>        -0.1710
     16 F3         -3.9320   -1.0186   -1.8808 F         1 <0>        -0.1750
     17 Cl1        -4.9567    3.1620   -6.1490 Cl        1 <0>        -0.0482
     18 S1          1.6771    1.7197    0.0095 S.3       1 <0>         0.1314
     19 C11         2.3140    0.8923    1.4289 C.2       1 <0>         0.2016
     20 N2          1.6544    0.0708    2.2170 N.2       1 <0>        -0.3267
     21 N3          2.4160   -0.3592    3.1572 N.2       1 <0>        -0.0216
     22 N4          3.5948    0.1508    3.0493 N.2       1 <0>        -0.0662
     23 N5          3.5754    0.9866    1.9190 N.pl3     1 <0>        -0.3092
     24 C12         4.6335    1.7538    1.4079 C.ar      1 <0>         0.1070
     25 C13         4.7687    1.9238    0.0367 C.ar      1 <0>        -0.0946
     26 C14         5.8071    2.6827   -0.4655 C.ar      1 <0>        -0.1203
     27 C15         6.7211    3.2670    0.3994 C.ar      1 <0>         0.1291
     28 C16         6.5896    3.0926    1.7696 C.ar      1 <0>        -0.1262
     29 C17         5.5485    2.3382    2.2729 C.ar      1 <0>        -0.0727
     30 O2          7.7460    4.0102   -0.0957 O.3       1 <0>        -0.4932
     31 H2         -0.2218    1.2399    2.1570 H         1 <0>         0.0951
     32 H3         -0.7580    2.6859    1.2683 H         1 <0>         0.0778
     33 H4         -1.7669    1.2194    1.2735 H         1 <0>         0.0806
     34 H5         -2.1428    0.1355   -1.2059 H         1 <0>         0.4190
     35 H6         -1.9100    3.4870   -2.3974 H         1 <0>         0.1678
     36 H7         -3.2050    4.4035   -4.2786 H         1 <0>         0.1509
     37 H8         -4.7249    0.5102   -5.1394 H         1 <0>         0.1556
     38 H9          4.0594    1.4659   -0.6368 H         1 <0>         0.1428
     39 H10         5.9102    2.8181   -1.5320 H         1 <0>         0.1488
     40 H11         7.3015    3.5473    2.4425 H         1 <0>         0.1473
     41 H12         5.4462    2.2026    3.3395 H         1 <0>         0.1443
     42 H13         8.5465    3.5010   -0.2828 H         1 <0>         0.3996
@<TRIPOS>BOND
     1    1    2 1
     2    1   31 1
     3    1   32 1
     4    1   33 1
     5    2    3 1
     6    2    4 1
     7    2   18 1
     8    4    5 2
     9    4    6 am
    10    6    7 1
    11    6   34 1
    12    7   12 ar
    13    7    8 ar
    14    8    9 ar
    15    8   35 1
    16    9   10 ar
    17    9   36 1
    18   10   11 ar
    19   10   17 1
    20   11   12 ar
    21   11   37 1
    22   12   13 1
    23   13   14 1
    24   13   15 1
    25   13   16 1
    26   18   19 1
    27   19   23 1
    28   19   20 2
    29   20   21 1
    30   21   22 2
    31   22   23 1
    32   23   24 1
    33   24   29 ar
    34   24   25 ar
    35   25   26 ar
    36   25   38 1
    37   26   27 ar
    38   26   39 1
    39   27   28 ar
    40   27   30 1
    41   28   29 ar
    42   28   40 1
    43   29   41 1
    44   30   42 1
@<TRIPOS>MOLECULE
ZINC36240528
   58    61     0     0     0
SMALL
USER_CHARGES

@<TRIPOS>ATOM
      1 C1         -0.0187    1.5258    0.0104 C.3       1 <0>        -0.1474
      2 C2          0.0021   -0.0041    0.0020 C.3       1 <0>        -0.0870
      3 H1         -1.0196   -0.3837    0.0097 H         1 <0>         0.0767
      4 C3          0.7256   -0.5013   -1.2529 C.3       1 <0>        -0.1172
      5 C4          0.5364   -2.0115   -1.3965 C.3       1 <0>        -0.0587
      6 C5          0.9496   -2.6879   -0.0920 C.2       1 <0>        -0.0445
      7 C6          1.0317   -1.9762    1.0551 C.2       1 <0>        -0.1742
      8 S1          1.5375   -3.1441    2.2925 S.3       1 <0>         0.1440
      9 C7          1.6386   -4.5809    1.2725 C.2       1 <0>         0.1030
     10 C8          1.2728   -4.1026   -0.0065 C.2       1 <0>        -0.2573
     11 C9          1.2567   -5.0511   -1.0806 C.2       1 <0>         0.5682
     12 O1          0.9550   -4.7348   -2.2186 O.2       1 <0>        -0.5010
     13 N1          1.5976   -6.3198   -0.7538 N.am      1 <0>        -0.5050
     14 C10         1.9375   -6.6938    0.5107 C.2       1 <0>         0.3528
     15 N2          1.9634   -5.8422    1.5272 N.2       1 <0>        -0.4852
     16 S2          2.3608   -8.3780    0.8086 S.3       1 <0>         0.1020
     17 C11         2.7358   -8.4291    2.5827 C.3       1 <0>        -0.1586
     18 C12         3.1182   -9.8330    2.9751 C.2       1 <0>         0.5409
     19 O2          3.1361  -10.7121    2.1405 O.2       1 <0>        -0.4465
     20 N3          3.4404  -10.1112    4.2539 N.am      1 <0>        -0.6845
     21 C13         3.7824  -11.3667    4.6048 C.2       1 <0>         0.6998
     22 O3          3.8003  -12.2480    3.7681 O.2       1 <0>        -0.5218
     23 N4          4.1046  -11.6449    5.8836 N.am      1 <0>        -0.7070
     24 C14         4.4764  -13.0096    6.2651 C.3       1 <0>         0.0917
     25 C15         3.8854  -13.5665    7.5618 C.3       1 <0>        -0.1912
     26 C16         5.3647  -13.1811    7.4989 C.3       1 <0>        -0.1863
     27 C17         1.6007   -7.3367   -1.8084 C.3       1 <0>         0.0811
     28 C18         2.9842   -7.3923   -2.4593 C.3       1 <0>        -0.1097
     29 C19         3.0250   -8.5371   -3.4736 C.3       1 <0>        -0.1450
     30 C20         3.2657   -6.0685   -3.1728 C.3       1 <0>        -0.1442
     31 C21         0.7512   -0.5159    1.2405 C.3       1 <0>        -0.0312
     32 H2          1.0039    1.9031    0.0027 H         1 <0>         0.0573
     33 H3         -0.5459    1.8868   -0.8726 H         1 <0>         0.0596
     34 H4         -0.5289    1.8773    0.9072 H         1 <0>         0.0576
     35 H5          0.3160    0.0001   -2.1298 H         1 <0>         0.0721
     36 H6          1.7888   -0.2755   -1.1715 H         1 <0>         0.0658
     37 H7         -0.5108   -2.2300   -1.6052 H         1 <0>         0.0786
     38 H8          1.1578   -2.3812   -2.2122 H         1 <0>         0.0867
     39 H9          3.5632   -7.7533    2.7988 H         1 <0>         0.1389
     40 H10         1.8570   -8.1202    3.1488 H         1 <0>         0.1386
     41 H11         3.4261   -9.4078    4.9217 H         1 <0>         0.4142
     42 H12         4.0903  -10.9415    6.5514 H         1 <0>         0.4011
     43 H13         4.6228  -13.7053    5.4388 H         1 <0>         0.1425
     44 H14         3.2200  -12.9175    8.1311 H         1 <0>         0.0985
     45 H15         3.6428  -14.6288    7.5888 H         1 <0>         0.1059
     46 H16         6.0953  -13.9898    7.4845 H         1 <0>         0.1073
     47 H17         5.6725  -12.2785    8.0268 H         1 <0>         0.0989
     48 H18         1.3630   -8.3089   -1.3764 H         1 <0>         0.1005
     49 H19         0.8549   -7.0816   -2.5612 H         1 <0>         0.1124
     50 H20         3.7402   -7.5596   -1.6921 H         1 <0>         0.0794
     51 H21         2.2689   -8.3699   -4.2407 H         1 <0>         0.0608
     52 H22         4.0106   -8.5767   -3.9373 H         1 <0>         0.0654
     53 H23         2.8244   -9.4802   -2.9653 H         1 <0>         0.0623
     54 H24         3.2366   -5.2530   -2.4502 H         1 <0>         0.0474
     55 H25         4.2513   -6.1081   -3.6365 H         1 <0>         0.0573
     56 H26         2.5097   -5.9013   -3.9399 H         1 <0>         0.0660
     57 H27         1.6914    0.0247    1.3492 H         1 <0>         0.0852
     58 H28         0.1356   -0.3681    2.1279 H         1 <0>         0.0832
@<TRIPOS>BOND
     1    1    2 1
     2    1   32 1
     3    1   33 1
     4    1   34 1
     5    2    3 1
     6    2   31 1
     7    2    4 1
     8    4    5 1
     9    4   35 1
    10    4   36 1
    11    5    6 1
    12    5   37 1
    13    5   38 1
    14    6   10 1
    15    6    7 2
    16    7    8 1
    17    7   31 1
    18    8    9 1
    19    9   15 1
    20    9   10 2
    21   10   11 1
    22   11   12 2
    23   11   13 am
    24   13   14 1
    25   13   27 1
    26   14   15 2
    27   14   16 1
    28   16   17 1
    29   17   18 1
    30   17   39 1
    31   17   40 1
    32   18   19 2
    33   18   20 am
    34   20   21 am
    35   20   41 1
    36   21   22 2
    37   21   23 am
    38   23   24 1
    39   23   42 1
    40   24   26 1
    41   24   25 1
    42   24   43 1
    43   25   26 1
    44   25   44 1
    45   25   45 1
    46   26   46 1
    47   26   47 1
    48   27   28 1
    49   27   48 1
    50   27   49 1
    51   28   29 1
    52   28   30 1
    53   28   50 1
    54   29   51 1
    55   29   52 1
    56   29   53 1
    57   30   54 1
    58   30   55 1
    59   30   56 1
    60   31   57 1
    61   31   58 1
@<TRIPOS>MOLECULE
ZINC09891939
   44    45     0     0     0
SMALL
USER_CHARGES

@<TRIPOS>ATOM
      1 C1          1.0365    1.5513    0.1679 C.3       1 <0>        -0.1581
      2 C2          1.0400    0.0446    0.1405 C.2       1 <0>         0.1329
      3 N1          0.8224   -0.6248    1.2311 N.2       1 <0>        -0.2053
      4 N2          0.5844    0.0534    2.4337 N.am      1 <0>        -0.5833
      5 C3          0.3585   -0.6417    3.5660 C.2       1 <0>         0.5083
      6 O1          0.3613   -1.8546    3.5440 O.2       1 <0>        -0.4908
      7 C4          0.1025    0.0879    4.8596 C.3       1 <0>         0.0991
      8 N3         -0.0315   -0.8823    5.9491 N.pl3     1 <0>        -0.9295
      9 C5          1.1086   -1.3781    6.5873 C.ar      1 <0>         0.1473
     10 C6          1.7954   -2.4568    6.0459 C.ar      1 <0>        -0.0883
     11 C7          2.9227   -2.9448    6.6797 C.ar      1 <0>        -0.0310
     12 C8          3.3667   -2.3599    7.8529 C.ar      1 <0>        -0.0839
     13 C9          2.6848   -1.2861    8.3947 C.ar      1 <0>        -0.0944
     14 C10         1.5607   -0.7891    7.7623 C.ar      1 <0>        -0.0112
     15 Cl1         0.7097    0.5641    8.4393 Cl        1 <0>        -0.0445
     16 Cl2         3.7821   -4.2933    6.0038 Cl        1 <0>        -0.0506
     17 S1         -1.5339   -1.3913    6.4245 S.o2      1 <0>         2.5952
     18 O2         -1.3529   -1.8660    7.7515 O.2       1 <0>        -0.9304
     19 O3         -2.3907   -0.2889    6.1600 O.2       1 <0>        -0.9451
     20 C11        -1.9309   -2.7712    5.3159 C.3       1 <0>        -0.6588
     21 C12         1.2904   -0.6689   -1.1245 C.ar      1 <0>        -0.0805
     22 C13         1.5306    0.0476   -2.2992 C.ar      1 <0>        -0.0781
     23 C14         1.7647   -0.6262   -3.4794 C.ar      1 <0>        -0.1337
     24 C15         1.7626   -2.0104   -3.5053 C.ar      1 <0>        -0.0856
     25 C16         1.5261   -2.7308   -2.3498 C.ar      1 <0>        -0.1529
     26 C17         1.2945   -2.0701   -1.1544 C.ar      1 <0>         0.1476
     27 O4          1.0672   -2.7771   -0.0174 O.3       1 <0>        -0.4723
     28 H1          2.0437    1.9133    0.3748 H         1 <0>         0.0884
     29 H2          0.7051    1.9315   -0.7984 H         1 <0>         0.0904
     30 H3          0.3583    1.8990    0.9472 H         1 <0>         0.0710
     31 H4          0.5822    1.0232    2.4513 H         1 <0>         0.3866
     32 H5          0.9362    0.7578    5.0701 H         1 <0>         0.1233
     33 H6         -0.8167    0.6674    4.7741 H         1 <0>         0.1387
     34 H7          1.4490   -2.9141    5.1309 H         1 <0>         0.1643
     35 H8          4.2475   -2.7433    8.3464 H         1 <0>         0.1488
     36 H9          3.0336   -0.8321    9.3104 H         1 <0>         0.1515
     37 H10        -1.1429   -3.5221    5.3738 H         1 <0>         0.1344
     38 H11        -2.8797   -3.2164    5.6154 H         1 <0>         0.1301
     39 H12        -2.0087   -2.4043    4.2925 H         1 <0>         0.1312
     40 H13         1.5328    1.1274   -2.2832 H         1 <0>         0.1335
     41 H14         1.9501   -0.0716   -4.3874 H         1 <0>         0.1310
     42 H15         1.9464   -2.5303   -4.4339 H         1 <0>         0.1300
     43 H16         1.5261   -3.8104   -2.3779 H         1 <0>         0.1331
     44 H17         0.1350   -2.9807    0.1394 H         1 <0>         0.3916
@<TRIPOS>BOND
     1    1    2 1
     2    1   28 1
     3    1   29 1
     4    1   30 1
     5    2    3 2
     6    2   21 1
     7    3    4 1
     8    4    5 am
     9    4   31 1
    10    5    6 2
    11    5    7 1
    12    7    8 1
    13    7   32 1
    14    7   33 1
    15    8    9 1
    16    8   17 1
    17    9   14 ar
    18    9   10 ar
    19   10   11 ar
    20   10   34 1
    21   11   12 ar
    22   11   16 1
    23   12   13 ar
    24   12   35 1
    25   13   14 ar
    26   13   36 1
    27   14   15 1
    28   17   18 2
    29   17   19 2
    30   17   20 1
    31   20   37 1
    32   20   38 1
    33   20   39 1
    34   21   26 ar
    35   21   22 ar
    36   22   23 ar
    37   22   40 1
    38   23   24 ar
    39   23   41 1
    40   24   25 ar
    41   24   42 1
    42   25   26 ar
    43   25   43 1
    44   26   27 1
    45   27   44 1
@<TRIPOS>MOLECULE
ZINC04260510
   67    69     0     0     0
SMALL
USER_CHARGES
N-[(allyl-methyl-carbamoyl)methyl-hydroxy-(hydroxymethyl)-dimethyl-BLAHyl]-2-methylsulfanyl-acetamide
@<TRIPOS>ATOM
      1 C1          2.0593    1.2874   -1.2502 C.3       1 <0>        -0.1686
      2 C2          1.4033    1.9391   -0.0313 C.3       1 <0>        -0.0459
      3 C3         -0.0823    1.5661    0.0132 C.3       1 <0>        -0.1112
      4 C4         -0.2470    0.0565    0.1754 C.3       1 <0>        -0.1573
      5 C5          0.4073   -0.3717    1.4925 C.3       1 <0>         0.1195
      6 H1         -0.0533    0.1662    2.3211 H         1 <0>         0.0525
      7 C6          1.8975   -0.0432    1.4299 C.3       1 <0>        -0.0418
      8 C7          2.1037    1.4633    1.2436 C.3       1 <0>        -0.0541
      9 H2          1.7226    2.0015    2.1116 H         1 <0>         0.0880
     10 C8          3.6198    1.7009    1.1002 C.3       1 <0>        -0.0356
     11 C9          3.8482    3.0733    0.5734 C.2       1 <0>        -0.2362
     12 C10         2.9391    3.9061    0.0043 C.2       1 <0>         0.0990
     13 N1          3.4002    5.0904   -0.3910 N.2       1 <0>        -0.5067
     14 C11         4.6608    5.4394   -0.2386 C.2       1 <0>         0.2762
     15 S1          5.3389    4.0313    0.5227 S.3       1 <0>         0.1530
     16 N2          5.2877    6.6279   -0.5943 N.am      1 <0>        -0.6066
     17 C12         6.6028    6.7950   -0.3515 C.2       1 <0>         0.5317
     18 O1          7.2393    5.9084    0.1774 O.2       1 <0>        -0.4765
     19 C13         7.2825    8.0835   -0.7372 C.3       1 <0>        -0.1256
     20 S2          9.0369    8.0011   -0.2834 S.3       1 <0>        -0.1751
     21 C14         9.7015    9.6057   -0.8071 C.3       1 <0>        -0.1404
     22 C15         1.4907    3.4667   -0.1454 C.3       1 <0>         0.0186
     23 H3          0.8893    3.9243    0.6402 H         1 <0>         0.0952
     24 C16         0.9632    3.9066   -1.5126 C.3       1 <0>        -0.1306
     25 C17         0.8630    5.4097   -1.5524 C.2       1 <0>         0.5166
     26 O2          1.1819    6.0647   -0.5827 O.2       1 <0>        -0.4997
     27 N3          0.4188    6.0262   -2.6656 N.am      1 <0>        -0.6232
     28 C18         0.0335    5.2351   -3.8368 C.3       1 <0>         0.0794
     29 C19         0.3214    7.4875   -2.7043 C.3       1 <0>         0.1445
     30 C20         1.6197    8.0644   -3.2069 C.2       1 <0>        -0.1621
     31 C21         1.6219    8.8711   -4.2390 C.2       1 <0>        -0.1856
     32 C22         2.5693   -0.4892    2.7302 C.3       1 <0>        -0.1381
     33 C23         2.5317   -0.7900    0.2547 C.3       1 <0>         0.0584
     34 O3          2.5021   -2.1954    0.5118 O.3       1 <0>        -0.5512
     35 O4          0.2340   -1.7779    1.6786 O.3       1 <0>        -0.5407
     36 H4          2.1097    2.0095   -2.0652 H         1 <0>         0.0601
     37 H5          3.0666    0.9621   -0.9902 H         1 <0>         0.0696
     38 H6          1.4689    0.4264   -1.5636 H         1 <0>         0.0715
     39 H7         -0.5617    1.8837   -0.9127 H         1 <0>         0.0707
     40 H8         -0.5564    2.0729    0.8538 H         1 <0>         0.0683
     41 H9         -1.3073   -0.1955    0.1951 H         1 <0>         0.0675
     42 H10         0.2370   -0.4554   -0.6564 H         1 <0>         0.0780
     43 H11         4.0984    1.5998    2.0743 H         1 <0>         0.0848
     44 H12         4.0398    0.9693    0.4099 H         1 <0>         0.0926
     45 H13         4.7787    7.3370   -1.0174 H         1 <0>         0.4239
     46 H14         7.1922    8.2341   -1.8130 H         1 <0>         0.1193
     47 H15         6.8103    8.9144   -0.2131 H         1 <0>         0.1200
     48 H16         9.5603    9.7243   -1.8814 H         1 <0>         0.0790
     49 H17         9.1785   10.4046   -0.2816 H         1 <0>         0.0793
     50 H18        10.7651    9.6523   -0.5731 H         1 <0>         0.1095
     51 H19         1.6458    3.5672   -2.2917 H         1 <0>         0.0952
     52 H20        -0.0225    3.4722   -1.6787 H         1 <0>         0.0955
     53 H21        -1.0252    4.9840   -3.7734 H         1 <0>         0.0558
     54 H22         0.2161    5.8139   -4.7423 H         1 <0>         0.0692
     55 H23         0.6231    4.3188   -3.8663 H         1 <0>         0.0695
     56 H24        -0.4889    7.7800   -3.3721 H         1 <0>         0.0774
     57 H25         0.1200    7.8649   -1.7017 H         1 <0>         0.0906
     58 H26         2.5483    7.8127   -2.7162 H         1 <0>         0.1063
     59 H27         0.6933    9.1228   -4.7297 H         1 <0>         0.0973
     60 H28         2.5524    9.2846   -4.5992 H         1 <0>         0.0975
     61 H29         2.4378   -1.5638    2.8571 H         1 <0>         0.0766
     62 H30         3.6332   -0.2558    2.6881 H         1 <0>         0.0531
     63 H31         2.1156    0.0343    3.5717 H         1 <0>         0.0499
     64 H32         1.9729   -0.5755   -0.6562 H         1 <0>         0.0714
     65 H33         3.5648   -0.4647    0.1324 H         1 <0>         0.0444
     66 H34         2.8888   -2.7325   -0.1933 H         1 <0>         0.3681
     67 H35        -0.6906   -2.0587    1.7160 H         1 <0>         0.3684
@<TRIPOS>BOND
     1    1    2 1
     2    1   36 1
     3    1   37 1
     4    1   38 1
     5    2    8 1
     6    2   22 1
     7    2    3 1
     8    3    4 1
     9    3   39 1
    10    3   40 1
    11    4    5 1
    12    4   41 1
    13    4   42 1
    14    5    6 1
    15    5    7 1
    16    5   35 1
    17    7    8 1
    18    7   32 1
    19    7   33 1
    20    8    9 1
    21    8   10 1
    22   10   11 1
    23   10   43 1
    24   10   44 1
    25   11   15 1
    26   11   12 2
    27   12   13 1
    28   12   22 1
    29   13   14 2
    30   14   15 1
    31   14   16 1
    32   16   17 am
    33   16   45 1
    34   17   18 2
    35   17   19 1
    36   19   20 1
    37   19   46 1
    38   19   47 1
    39   20   21 1
    40   21   48 1
    41   21   49 1
    42   21   50 1
    43   22   23 1
    44   22   24 1
    45   24   25 1
    46   24   51 1
    47   24   52 1
    48   25   26 2
    49   25   27 am
    50   27   28 1
    51   27   29 1
    52   28   53 1
    53   28   54 1
    54   28   55 1
    55   29   30 1
    56   29   56 1
    57   29   57 1
    58   30   31 2
    59   30   58 1
    60   31   59 1
    61   31   60 1
    62   32   61 1
    63   32   62 1
    64   32   63 1
    65   33   34 1
    66   33   64 1
    67   33   65 1
    68   34   66 1
    69   35   67 1
@<TRIPOS>MOLECULE
ZINC01906741
   40    42     0     0     0
SMALL
USER_CHARGES
2-[(4-amino-5-methyl-1,2,4-triazol-3-yl)sulfanyl]-N-[5-[(4-bromophenyl)methyl]thiazol-2-yl]acetamide
@<TRIPOS>ATOM
      1 C1         -3.0415    1.5950    0.0899 C.3       1 <0>        -0.0642
      2 C2         -2.0795    1.7682   -1.0571 C.2       1 <0>         0.2231
      3 N1         -2.3693    2.2108   -2.2478 N.2       1 <0>        -0.2804
      4 N2         -1.3131    2.2317   -2.9799 N.2       1 <0>        -0.2790
      5 C3         -0.2824    1.8044   -2.2880 C.2       1 <0>         0.0987
      6 N3         -0.7405    1.4903   -1.0408 N.pl3     1 <0>        -0.3054
      7 N4         -0.0116    1.0048    0.0076 N.3       1 <0>        -0.5825
      8 S1          1.3774    1.6605   -2.8616 S.3       1 <0>         0.0801
      9 C4          1.1755    2.2526   -4.5600 C.3       1 <0>        -0.1397
     10 C5          2.5065    2.2171   -5.2659 C.2       1 <0>         0.5303
     11 O1          3.4943    1.8296   -4.6785 O.2       1 <0>        -0.4528
     12 N5          2.5991    2.6160   -6.5500 N.am      1 <0>        -0.6134
     13 C6          3.8267    2.5832   -7.2011 C.2       1 <0>         0.2978
     14 N6          5.0013    2.2046   -6.7362 N.2       1 <0>        -0.5073
     15 C7          6.0781    2.2313   -7.4969 C.2       1 <0>         0.0630
     16 C8          5.9564    2.6704   -8.7736 C.2       1 <0>        -0.1915
     17 S2          4.2087    3.0376   -8.8330 S.3       1 <0>         0.0723
     18 C9          7.0055    2.8106   -9.8463 C.3       1 <0>         0.0124
     19 C10         7.0914    1.5297  -10.6355 C.ar      1 <0>        -0.0692
     20 C11         7.9652    0.5332  -10.2424 C.ar      1 <0>        -0.1032
     21 C12         8.0409   -0.6438  -10.9631 C.ar      1 <0>        -0.0881
     22 C13         7.2497   -0.8203  -12.0839 C.ar      1 <0>        -0.0906
     23 C14         6.3792    0.1792  -12.4799 C.ar      1 <0>        -0.0882
     24 C15         6.3004    1.3537  -11.7555 C.ar      1 <0>        -0.1057
     25 Br1         7.3575   -2.4277  -13.0741 Br        1 <0>        -0.0489
     26 H1         -3.0779    2.5136    0.6755 H         1 <0>         0.0912
     27 H2         -4.0350    1.3728   -0.2996 H         1 <0>         0.0963
     28 H3         -2.7075    0.7733    0.7234 H         1 <0>         0.0849
     29 H4          0.0021   -0.0041    0.0020 H         1 <0>         0.3688
     30 H5          0.9253    1.3792    0.0006 H         1 <0>         0.3786
     31 H6          0.4679    1.6121   -5.0864 H         1 <0>         0.1366
     32 H7          0.7989    3.2754   -4.5459 H         1 <0>         0.1371
     33 H8          1.8091    2.9259   -7.0198 H         1 <0>         0.4315
     34 H9          7.0357    1.9150   -7.1104 H         1 <0>         0.1730
     35 H10         6.7366    3.6304  -10.5125 H         1 <0>         0.0947
     36 H11         7.9710    3.0188   -9.3853 H         1 <0>         0.1056
     37 H12         8.5859    0.6728   -9.3697 H         1 <0>         0.1338
     38 H13         8.7204   -1.4240  -10.6534 H         1 <0>         0.1344
     39 H14         5.7610    0.0417  -13.3547 H         1 <0>         0.1342
     40 H15         5.6206    2.1340  -12.0644 H         1 <0>         0.1315
@<TRIPOS>BOND
     1    1    2 1
     2    1   26 1
     3    1   27 1
     4    1   28 1
     5    2    6 1
     6    2    3 2
     7    3    4 1
     8    4    5 2
     9    5    6 1
    10    5    8 1
    11    6    7 1
    12    7   29 1
    13    7   30 1
    14    8    9 1
    15    9   10 1
    16    9   31 1
    17    9   32 1
    18   10   11 2
    19   10   12 am
    20   12   13 1
    21   12   33 1
    22   13   17 1
    23   13   14 2
    24   14   15 1
    25   15   16 2
    26   15   34 1
    27   16   17 1
    28   16   18 1
    29   18   19 1
    30   18   35 1
    31   18   36 1
    32   19   24 ar
    33   19   20 ar
    34   20   21 ar
    35   20   37 1
    36   21   22 ar
    37   21   38 1
    38   22   23 ar
    39   22   25 1
    40   23   24 ar
    41   23   39 1
    42   24   40 1
@<TRIPOS>MOLECULE
ZINC22533826
   45    47     0     0     0
SMALL
USER_CHARGES
2-[4-[[5-(2-amino-2-oxo-ethyl)sulfanyl-1,3,4-thiadiazol-2-yl]sulfanylmethyl]thiazol-2-yl]-N-(p-tolyl)acetamide
@<TRIPOS>ATOM
      1 C1          1.2214   -2.1876    0.0053 C.3       1 <0>        -0.1169
      2 C2          1.2058   -0.6807    0.0061 C.ar      1 <0>        -0.1002
      3 C3          2.1451    0.0187    0.7414 C.ar      1 <0>        -0.1007
      4 C4          2.1332    1.3997    0.7446 C.ar      1 <0>        -0.1182
      5 C5          1.1769    2.0861    0.0078 C.ar      1 <0>         0.1438
      6 C6          0.2358    1.3808   -0.7308 C.ar      1 <0>        -0.1406
      7 C7          0.2525   -0.0002   -0.7290 C.ar      1 <0>        -0.1020
      8 N1          1.1618    3.4852    0.0092 N.am      1 <0>        -0.6838
      9 C8          2.3179    4.1715    0.1036 C.2       1 <0>         0.5193
     10 O1          3.3768    3.5803    0.0909 O.2       1 <0>        -0.5067
     11 C9          2.2948    5.6734    0.2249 C.3       1 <0>        -0.0531
     12 C10         3.7070    6.1919    0.3142 C.2       1 <0>         0.1066
     13 N2          4.5157    6.5534   -0.6549 N.2       1 <0>        -0.4851
     14 C11         5.7313    6.9941   -0.4067 C.2       1 <0>         0.0631
     15 C12         6.1433    7.0576    0.8851 C.2       1 <0>        -0.1835
     16 S1          4.6845    6.4573    1.7248 S.3       1 <0>         0.0880
     17 C13         6.6453    7.4116   -1.5298 C.3       1 <0>        -0.0441
     18 S2          7.6065    5.9793   -2.0914 S.3       1 <0>         0.0785
     19 C14         8.6119    6.6224   -3.3877 C.2       1 <0>         0.0518
     20 N3          8.6771    7.8509   -3.8639 N.2       1 <0>        -0.3035
     21 N4          9.5431    8.1411   -4.8927 N.2       1 <0>        -0.3047
     22 C15        10.3043    7.1894   -5.3980 C.2       1 <0>         0.0353
     23 S3          9.8210    5.7869   -4.4029 S.3       1 <0>         0.0717
     24 S4         11.4870    7.2794   -6.7009 S.3       1 <0>         0.1385
     25 C16        11.4360    9.0167   -7.2206 C.3       1 <0>        -0.1660
     26 C17        12.4148    9.2333   -8.3459 C.2       1 <0>         0.5409
     27 O2         13.0811    8.3070   -8.7568 O.2       1 <0>        -0.5341
     28 N5         12.5496   10.4565   -8.8955 N.am      1 <0>        -0.8680
     29 H1          2.0440   -2.5461    0.6416 H         1 <0>         0.0654
     30 H2          1.3670   -2.5522   -1.0223 H         1 <0>         0.0696
     31 H3          0.2646   -2.5644    0.3960 H         1 <0>         0.0697
     32 H4          2.8886   -0.5157    1.3142 H         1 <0>         0.1249
     33 H5          2.8641    1.9453    1.3230 H         1 <0>         0.1321
     34 H6         -0.5091    1.9117   -1.3051 H         1 <0>         0.1260
     35 H7         -0.4796   -0.5493   -1.3026 H         1 <0>         0.1259
     36 H8          0.2064    4.0250   -0.0667 H         1 <0>         0.4368
     37 H9          1.8009    6.1050   -0.6581 H         1 <0>         0.1355
     38 H10         1.7411    5.9596    1.1313 H         1 <0>         0.1295
     39 H11         7.0899    7.3810    1.2923 H         1 <0>         0.2047
     40 H12         6.0452    7.8009   -2.3654 H         1 <0>         0.1178
     41 H13         7.3297    8.1956   -1.1734 H         1 <0>         0.1176
     42 H14        10.4214    9.2671   -7.5638 H         1 <0>         0.1296
     43 H15        11.7053    9.6616   -6.3711 H         1 <0>         0.1296
     44 H16        13.2640   10.6147   -9.7169 H         1 <0>         0.4329
     45 H17        11.9452   11.2966   -8.5227 H         1 <0>         0.4262
@<TRIPOS>BOND
     1    1    2 1
     2    1   29 1
     3    1   30 1
     4    1   31 1
     5    2    7 ar
     6    2    3 ar
     7    3    4 ar
     8    3   32 1
     9    4    5 ar
    10    4   33 1
    11    5    6 ar
    12    5    8 1
    13    6    7 ar
    14    6   34 1
    15    7   35 1
    16    8    9 am
    17    8   36 1
    18    9   10 2
    19    9   11 1
    20   11   12 1
    21   11   37 1
    22   11   38 1
    23   12   16 1
    24   12   13 2
    25   13   14 1
    26   14   15 2
    27   14   17 1
    28   15   16 1
    29   15   39 1
    30   17   18 1
    31   17   40 1
    32   17   41 1
    33   18   19 1
    34   19   23 1
    35   19   20 2
    36   20   21 1
    37   21   22 2
    38   22   23 1
    39   22   24 1
    40   24   25 1
    41   25   26 1
    42   25   42 1
    43   25   43 1
    44   26   27 2
    45   26   28 am
    46   28   44 1
    47   28   45 1
@<TRIPOS>MOLECULE
ZINC37421836
   63    66     0     0     0
SMALL
USER_CHARGES

@<TRIPOS>ATOM
      1 C1          0.8602    1.2333    0.5588 C.ar      1 <0>        -0.0870
      2 C2          2.1386    1.7294    0.7447 C.ar      1 <0>        -0.1185
      3 C3          3.2155    0.8690    0.7919 C.ar      1 <0>        -0.0669
      4 C4          3.0134   -0.5058    0.6522 C.ar      1 <0>        -0.0248
      5 C5          1.7209   -0.9994    0.4654 C.ar      1 <0>        -0.0405
      6 C6          0.6528   -0.1274    0.4197 C.ar      1 <0>        -0.0981
      7 C7          1.4931   -2.4813    0.3132 C.3       1 <0>         0.0863
      8 O1          0.0977   -2.7330    0.1356 O.3       1 <0>        -0.3504
      9 C8         -0.2168   -4.1010   -0.1321 C.3       1 <0>         0.1196
     10 C9          0.2119   -4.9647    1.0559 C.3       1 <0>        -0.1185
     11 C10        -0.1247   -6.4294    0.7693 C.3       1 <0>         0.0552
     12 H1          0.4041   -6.7553   -0.1264 H         1 <0>         0.1126
     13 C11        -1.6324   -6.5731    0.5520 C.3       1 <0>         0.0537
     14 H2         -1.8722   -7.6166    0.3478 H         1 <0>         0.0590
     15 C12        -2.0611   -5.7094   -0.6359 C.3       1 <0>         0.1074
     16 H3         -1.5322   -6.0352   -1.5316 H         1 <0>         0.0769
     17 C13        -1.7244   -4.2447   -0.3493 C.3       1 <0>        -0.0992
     18 O2         -3.4692   -5.8436   -0.8389 O.3       1 <0>        -0.3560
     19 C14        -3.8300   -6.9025   -1.7281 C.3       1 <0>         0.1043
     20 C15        -5.3297   -6.9520   -1.8679 C.ar      1 <0>        -0.1239
     21 C16        -6.1180   -6.0444   -1.1858 C.ar      1 <0>        -0.0659
     22 C17        -7.4935   -6.0896   -1.3139 C.ar      1 <0>        -0.1300
     23 C18        -8.0826   -7.0425   -2.1242 C.ar      1 <0>        -0.0903
     24 C19        -7.2965   -7.9506   -2.8074 C.ar      1 <0>        -0.1533
     25 C20        -5.9180   -7.9030   -2.6840 C.ar      1 <0>         0.1004
     26 F1         -5.1482   -8.7874   -3.3551 F         1 <0>        -0.1387
     27 O3         -2.3257   -6.1460    1.7263 O.3       1 <0>        -0.5435
     28 O4          0.2756   -7.2361    1.8788 O.3       1 <0>        -0.5619
     29 C21         0.5144   -4.5515   -1.3704 C.2       1 <0>         0.4890
     30 O5          1.0272   -5.6500   -1.4060 O.2       1 <0>        -0.5229
     31 N1          0.5984   -3.7336   -2.4384 N.am      1 <0>        -0.7147
     32 C22         1.4005   -4.1257   -3.5999 C.3       1 <0>         0.1469
     33 C23         1.3276   -3.0286   -4.6638 C.3       1 <0>        -0.1746
     34 C24         0.6811   -3.3857   -6.0037 C.3       1 <0>        -0.1742
     35 C25         2.1965   -3.1960   -5.9120 C.3       1 <0>        -0.1682
     36 C26         4.1269   -1.4049    0.6997 C.1       1 <0>         0.2433
     37 N2          5.0102   -2.1183    0.7375 N.1       1 <0>        -0.4037
     38 H4          0.0200    1.9111    0.5267 H         1 <0>         0.1341
     39 H5          2.2934    2.7928    0.8526 H         1 <0>         0.1359
     40 H6          4.2128    1.2575    0.9363 H         1 <0>         0.1359
     41 H7         -0.3476   -0.5079    0.2753 H         1 <0>         0.1453
     42 H8          2.0414   -2.8459   -0.5555 H         1 <0>         0.0711
     43 H9          1.8444   -2.9967    1.2071 H         1 <0>         0.0773
     44 H10         1.2860   -4.8623    1.2106 H         1 <0>         0.0777
     45 H11        -0.3169   -4.6389    1.9516 H         1 <0>         0.0978
     46 H12        -2.2533   -3.9189    0.5464 H         1 <0>         0.1103
     47 H13        -2.0298   -3.6294   -1.1956 H         1 <0>         0.0870
     48 H14        -3.3797   -6.7260   -2.7049 H         1 <0>         0.0667
     49 H15        -3.4708   -7.8508   -1.3284 H         1 <0>         0.0652
     50 H16        -5.6590   -5.2998   -0.5523 H         1 <0>         0.1443
     51 H17        -8.1087   -5.3802   -0.7803 H         1 <0>         0.1319
     52 H18        -9.1575   -7.0773   -2.2229 H         1 <0>         0.1338
     53 H19        -7.7568   -8.6951   -3.4400 H         1 <0>         0.1373
     54 H20        -2.1025   -6.6507    2.5203 H         1 <0>         0.3801
     55 H21         0.0922   -8.1788    1.7661 H         1 <0>         0.3799
     56 H22         0.1278   -2.8855   -2.4379 H         1 <0>         0.4081
     57 H23         2.4372   -4.2673   -3.2945 H         1 <0>         0.0731
     58 H24         1.0126   -5.0574   -4.0116 H         1 <0>         0.0733
     59 H25         1.1784   -2.0169   -4.2864 H         1 <0>         0.1121
     60 H26         0.3077   -4.4023   -6.1273 H         1 <0>         0.0969
     61 H27         0.1063   -2.6090   -6.5081 H         1 <0>         0.0980
     62 H28         2.6187   -2.2944   -6.3559 H         1 <0>         0.0998
     63 H29         2.8201   -4.0877   -5.9752 H         1 <0>         0.0980
@<TRIPOS>BOND
     1    1    6 ar
     2    1    2 ar
     3    1   38 1
     4    2    3 ar
     5    2   39 1
     6    3    4 ar
     7    3   40 1
     8    4    5 ar
     9    4   36 1
    10    5    6 ar
    11    5    7 1
    12    6   41 1
    13    7    8 1
    14    7   42 1
    15    7   43 1
    16    8    9 1
    17    9   17 1
    18    9   10 1
    19    9   29 1
    20   10   11 1
    21   10   44 1
    22   10   45 1
    23   11   12 1
    24   11   13 1
    25   11   28 1
    26   13   14 1
    27   13   15 1
    28   13   27 1
    29   15   16 1
    30   15   17 1
    31   15   18 1
    32   17   46 1
    33   17   47 1
    34   18   19 1
    35   19   20 1
    36   19   48 1
    37   19   49 1
    38   20   25 ar
    39   20   21 ar
    40   21   22 ar
    41   21   50 1
    42   22   23 ar
    43   22   51 1
    44   23   24 ar
    45   23   52 1
    46   24   25 ar
    47   24   53 1
    48   25   26 1
    49   27   54 1
    50   28   55 1
    51   29   30 2
    52   29   31 am
    53   31   32 1
    54   31   56 1
    55   32   33 1
    56   32   57 1
    57   32   58 1
    58   33   35 1
    59   33   34 1
    60   33   59 1
    61   34   35 1
    62   34   60 1
    63   34   61 1
    64   35   62 1
    65   35   63 1
    66   36   37 3
@<TRIPOS>MOLECULE
ZINC33870864
   64    68     0     0     0
SMALL
USER_CHARGES

@<TRIPOS>ATOM
      1 C1          2.4432   -0.1481   -0.9826 C.3       1 <0>        -0.1221
      2 C2          1.1805   -0.7934   -0.4726 C.ar      1 <0>        -0.0784
      3 C3         -0.0318   -0.5115   -1.0747 C.ar      1 <0>        -0.0864
      4 C4         -1.1899   -1.1034   -0.6070 C.ar      1 <0>        -0.1100
      5 C5         -1.1360   -1.9776    0.4627 C.ar      1 <0>        -0.0683
      6 C6          0.0759   -2.2601    1.0641 C.ar      1 <0>        -0.1339
      7 C7          1.2350   -1.6714    0.5935 C.ar      1 <0>        -0.0771
      8 C8          0.1345   -3.2127    2.2304 C.3       1 <0>         0.1129
      9 H1         -0.4450   -4.1118    2.0211 H         1 <0>         0.1514
     10 C9          1.5799   -3.5684    2.5637 C.3       1 <0>        -0.1533
     11 H2          2.2415   -2.7027    2.5324 H         1 <0>         0.1665
     12 C10         1.3169   -4.1136    4.0185 C.3       1 <0>        -0.1400
     13 H3          0.5938   -4.9140    3.8622 H         1 <0>         0.1058
     14 C11         2.5243   -4.8588    4.2818 C.2       1 <0>         0.5769
     15 O1          3.0873   -5.0004    5.3460 O.2       1 <0>        -0.3987
     16 N1          2.8962   -5.3729    3.0643 N.am      1 <0>        -0.5520
     17 C12         2.2201   -4.8005    2.0066 C.2       1 <0>         0.5610
     18 O2          2.1492   -5.2069    0.8666 O.2       1 <0>        -0.4292
     19 C13         3.8717   -6.3675    2.9070 C.ar      1 <0>         0.1024
     20 C14         3.5077   -7.7074    2.9220 C.ar      1 <0>        -0.0938
     21 C15         4.4709   -8.6849    2.7668 C.ar      1 <0>        -0.1168
     22 C16         5.7968   -8.3303    2.5967 C.ar      1 <0>        -0.0959
     23 C17         6.1622   -6.9970    2.5814 C.ar      1 <0>        -0.1118
     24 C18         5.2025   -6.0146    2.7304 C.ar      1 <0>        -0.0599
     25 C19         5.6008   -4.5614    2.7074 C.3       1 <0>        -0.1192
     26 C20         0.4813   -3.0717    4.6285 C.3       1 <0>         0.0293
     27 N2         -0.3529   -2.5476    3.4827 N.4       1 <0>        -0.5059
     28 C21        -0.4301   -3.6771    5.6980 C.3       1 <0>        -0.0762
     29 C22        -1.3624   -2.6157    6.2228 C.ar      1 <0>        -0.1153
     30 C23        -0.9863   -1.8399    7.3038 C.ar      1 <0>        -0.0621
     31 C24        -1.8393   -0.8667    7.7871 C.ar      1 <0>        -0.1319
     32 C25        -3.0740   -0.6677    7.1866 C.ar      1 <0>         0.1150
     33 C26        -3.4488   -1.4472    6.1018 C.ar      1 <0>        -0.1407
     34 C27        -2.5900   -2.4156    5.6191 C.ar      1 <0>        -0.1266
     35 O3         -3.9151    0.2887    7.6604 O.3       1 <0>        -0.4987
     36 C28         1.3432   -1.9879    5.2229 C.2       1 <0>         0.5078
     37 O4          1.2405   -0.8401    4.8246 O.co2     1 <0>        -0.6564
     38 O5          2.1433   -2.2587    6.1022 O.co2     1 <0>        -0.6077
     39 C29        -2.3989   -2.6222    0.9734 C.3       1 <0>        -0.1234
     40 H4          2.8845   -0.7752   -1.7572 H         1 <0>         0.0768
     41 H5          2.2081    0.8317   -1.3985 H         1 <0>         0.0732
     42 H6          3.1503   -0.0339   -0.1610 H         1 <0>         0.0721
     43 H7         -0.0738    0.1714   -1.9104 H         1 <0>         0.1329
     44 H8         -2.1369   -0.8827   -1.0769 H         1 <0>         0.1339
     45 H9          2.1825   -1.8950    1.0609 H         1 <0>         0.1291
     46 H10         2.4725   -7.9848    3.0551 H         1 <0>         0.1259
     47 H11         4.1884   -9.7272    2.7787 H         1 <0>         0.1329
     48 H12         6.5483   -9.0965    2.4759 H         1 <0>         0.1320
     49 H13         7.1984   -6.7232    2.4484 H         1 <0>         0.1339
     50 H14         5.8379   -4.2336    3.7195 H         1 <0>         0.0832
     51 H15         6.4759   -4.4346    2.0700 H         1 <0>         0.0775
     52 H16         4.7767   -3.9650    2.3160 H         1 <0>         0.0555
     53 H17        -0.2300   -1.5487    3.4100 H         1 <0>         0.4394
     54 H18        -1.0123   -4.4889    5.2621 H         1 <0>         0.0867
     55 H19         0.1772   -4.0641    6.5162 H         1 <0>         0.1278
     56 H20        -0.0250   -1.9952    7.7709 H         1 <0>         0.1403
     57 H21        -1.5454   -0.2615    8.6319 H         1 <0>         0.1347
     58 H22        -4.4095   -1.2942    5.6326 H         1 <0>         0.1324
     59 H23        -2.8795   -3.0197    4.7719 H         1 <0>         0.1190
     60 H24        -3.7966    1.1557    7.2488 H         1 <0>         0.3947
     61 H25        -2.5138   -3.6064    0.5192 H         1 <0>         0.0860
     62 H26        -2.3411   -2.7265    2.0568 H         1 <0>         0.0447
     63 H27        -3.2552   -1.9999    0.7134 H         1 <0>         0.0854
     64 H28        -1.3275   -2.7644    3.6284 H         1 <0>         0.4126
@<TRIPOS>BOND
     1    1    2 1
     2    1   40 1
     3    1   41 1
     4    1   42 1
     5    2    7 ar
     6    2    3 ar
     7    3    4 ar
     8    3   43 1
     9    4    5 ar
    10    4   44 1
    11    5    6 ar
    12    5   39 1
    13    6    7 ar
    14    6    8 1
    15    7   45 1
    16    8    9 1
    17    8   27 1
    18    8   10 1
    19   10   11 1
    20   10   17 1
    21   10   12 1
    22   12   13 1
    23   12   14 1
    24   12   26 1
    25   14   15 2
    26   14   16 am
    27   16   17 am
    28   16   19 1
    29   17   18 2
    30   19   24 ar
    31   19   20 ar
    32   20   21 ar
    33   20   46 1
    34   21   22 ar
    35   21   47 1
    36   22   23 ar
    37   22   48 1
    38   23   24 ar
    39   23   49 1
    40   24   25 1
    41   25   50 1
    42   25   51 1
    43   25   52 1
    44   26   27 1
    45   26   28 1
    46   26   36 1
    47   27   53 1
    48   27   64 1
    49   28   29 1
    50   28   54 1
    51   28   55 1
    52   29   34 ar
    53   29   30 ar
    54   30   31 ar
    55   30   56 1
    56   31   32 ar
    57   31   57 1
    58   32   33 ar
    59   32   35 1
    60   33   34 ar
    61   33   58 1
    62   34   59 1
    63   35   60 1
    64   36   37 2
    65   36   38 1
    66   39   61 1
    67   39   62 1
    68   39   63 1
@<TRIPOS>MOLECULE
ZINC10233924
   49    51     0     0     0
SMALL
USER_CHARGES
4-[5-(2-chlorophenyl)-3-(2-methylsulfonylaminophenyl)-4,5-dihydropyrazol-1-yl]-4-oxo-butanoic acid
@<TRIPOS>ATOM
      1 C1         -2.2088   -0.1043   -2.4739 C.3       1 <0>        -0.6698
      2 S1         -2.5482   -0.0771   -0.6922 S.o2      1 <0>         2.5936
      3 O1         -3.5885   -0.9927   -0.3780 O.2       1 <0>        -0.9139
      4 O2         -2.5972    1.2636   -0.2237 O.2       1 <0>        -0.9552
      5 N1         -1.1930   -0.7204    0.0091 N.pl3     1 <0>        -1.0444
      6 C2          0.0445   -0.1070   -0.1745 C.ar      1 <0>         0.1987
      7 C3          0.1329    1.2756   -0.2496 C.ar      1 <0>        -0.1826
      8 C4          1.3607    1.8819   -0.4321 C.ar      1 <0>        -0.0704
      9 C5          2.5105    1.1177   -0.5414 C.ar      1 <0>        -0.1418
     10 C6          2.4418   -0.2576   -0.4691 C.ar      1 <0>        -0.0645
     11 C7          1.2075   -0.8847   -0.2848 C.ar      1 <0>        -0.0581
     12 C8          1.1268   -2.3537   -0.2071 C.2       1 <0>         0.1324
     13 N2          0.0434   -3.0311   -0.0404 N.2       1 <0>        -0.2319
     14 N3          0.2351   -4.4107   -0.0014 N.am      1 <0>        -0.4670
     15 C9          1.6689   -4.6968   -0.1681 C.3       1 <0>         0.1453
     16 H1          1.8396   -5.2916   -1.0654 H         1 <0>         0.1077
     17 C10         2.3017   -3.2990   -0.3173 C.3       1 <0>        -0.1171
     18 C11         2.2133   -5.4038    1.0463 C.ar      1 <0>        -0.0775
     19 C12         1.5211   -5.3565    2.2420 C.ar      1 <0>        -0.0842
     20 C13         2.0200   -6.0053    3.3558 C.ar      1 <0>        -0.1081
     21 C14         3.2116   -6.7018    3.2749 C.ar      1 <0>        -0.1051
     22 C15         3.9047   -6.7494    2.0803 C.ar      1 <0>        -0.1101
     23 C16         3.4029   -6.1049    0.9634 C.ar      1 <0>        -0.0238
     24 Cl1         4.2688   -6.1711   -0.5398 Cl        1 <0>        -0.0694
     25 C17        -0.7344   -5.3326    0.1622 C.2       1 <0>         0.5473
     26 O3         -0.4527   -6.5125    0.1803 O.2       1 <0>        -0.5051
     27 C18        -2.1683   -4.8977    0.3226 C.3       1 <0>        -0.1053
     28 C19        -3.0593   -6.1302    0.4905 C.3       1 <0>        -0.1446
     29 C20        -4.4932   -5.6954    0.6509 C.2       1 <0>         0.4577
     30 O4         -4.7738   -4.5203    0.6329 O.co2     1 <0>        -0.6288
     31 H2         -2.0374   -1.1315   -2.7955 H         1 <0>         0.1329
     32 H3         -3.0622    0.3075   -3.0127 H         1 <0>         0.1333
     33 H4         -1.3228    0.4949   -2.6842 H         1 <0>         0.1266
     34 H5         -1.2606   -1.5243    0.5477 H         1 <0>         0.4383
     35 H6         -0.7597    1.8783   -0.1698 H         1 <0>         0.1671
     36 H7          1.4242    2.9585   -0.4904 H         1 <0>         0.1326
     37 H8          3.4656    1.6013   -0.6839 H         1 <0>         0.1302
     38 H9          3.3413   -0.8491   -0.5552 H         1 <0>         0.1328
     39 H10         2.7842   -3.1975   -1.2894 H         1 <0>         0.1089
     40 H11         3.0156   -3.1169    0.4859 H         1 <0>         0.1061
     41 H12         0.5900   -4.8129    2.3057 H         1 <0>         0.1270
     42 H13         1.4787   -5.9683    4.2896 H         1 <0>         0.1312
     43 H14         3.6006   -7.2091    4.1454 H         1 <0>         0.1330
     44 H15         4.8353   -7.2938    2.0171 H         1 <0>         0.1346
     45 H16        -2.2587   -4.2615    1.2030 H         1 <0>         0.0982
     46 H17        -2.4804   -4.3415   -0.5613 H         1 <0>         0.1000
     47 H18        -2.9689   -6.7665   -0.3899 H         1 <0>         0.0691
     48 H19        -2.7472   -6.6865    1.3744 H         1 <0>         0.0689
     49 O5         -5.4587   -6.6135    0.8139 O.co2     1 <0>        -0.7750
@<TRIPOS>BOND
     1    1    2 1
     2    1   31 1
     3    1   32 1
     4    1   33 1
     5    2    3 2
     6    2    4 2
     7    2    5 1
     8    5    6 1
     9    5   34 1
    10    6   11 ar
    11    6    7 ar
    12    7    8 ar
    13    7   35 1
    14    8    9 ar
    15    8   36 1
    16    9   10 ar
    17    9   37 1
    18   10   11 ar
    19   10   38 1
    20   11   12 1
    21   12   17 1
    22   12   13 2
    23   13   14 1
    24   14   15 1
    25   14   25 am
    26   15   16 1
    27   15   17 1
    28   15   18 1
    29   17   39 1
    30   17   40 1
    31   18   23 ar
    32   18   19 ar
    33   19   20 ar
    34   19   41 1
    35   20   21 ar
    36   20   42 1
    37   21   22 ar
    38   21   43 1
    39   22   23 ar
    40   22   44 1
    41   23   24 1
    42   25   26 2
    43   25   27 1
    44   27   28 1
    45   27   45 1
    46   27   46 1
    47   28   29 1
    48   28   47 1
    49   28   48 1
    50   29   30 2
    51   29   49 1
@<TRIPOS>MOLECULE
ZINC13212356
   49    51     0     0     0
SMALL
USER_CHARGES
2-[(6-chloro-3,4-dihydro-2H-1,5-benzodioxepin-8-yl)methylamino]-5-(dimethylsulfamoyl)benzoic acid
@<TRIPOS>ATOM
      1 C1          0.1579   12.4127   -8.6426 C.3       1 <0>         0.0922
      2 N1          0.8762   12.6287   -7.3841 N.pl3     1 <0>        -1.0103
      3 C2          2.3372   12.7364   -7.3837 C.3       1 <0>         0.0929
      4 S1          0.0365   12.7510   -5.9620 S.o2      1 <0>         2.6991
      5 O1         -1.2791   13.1669   -6.3016 O.2       1 <0>        -0.9597
      6 O2          0.8600   13.4847   -5.0660 O.2       1 <0>        -0.9704
      7 C3         -0.1049   11.1246   -5.2990 C.ar      1 <0>        -0.7538
      8 C4          0.8727   10.6418   -4.4429 C.ar      1 <0>         0.0250
      9 C5          0.7748    9.3705   -3.9164 C.ar      1 <0>        -0.2410
     10 C6         -0.3082    8.5633   -4.2428 C.ar      1 <0>         0.2989
     11 C7         -1.2972    9.0471   -5.1141 C.ar      1 <0>        -0.2154
     12 C8         -1.1863   10.3402   -5.6337 C.ar      1 <0>         0.0682
     13 C9         -2.4471    8.1999   -5.4737 C.2       1 <0>         0.5031
     14 O3         -2.5965    7.1191   -4.9386 O.co2     1 <0>        -0.6335
     15 N2         -0.4089    7.2833   -3.7146 N.pl3     1 <0>        -0.7137
     16 C10         0.6856    6.7348   -2.9100 C.3       1 <0>         0.1565
     17 C11         0.3291    5.3413   -2.4605 C.ar      1 <0>        -0.0770
     18 C12        -0.3385    5.1527   -1.2632 C.ar      1 <0>        -0.0893
     19 C13        -0.6642    3.8710   -0.8529 C.ar      1 <0>         0.0771
     20 C14        -0.3220    2.7811   -1.6403 C.ar      1 <0>         0.0787
     21 C15         0.3454    2.9727   -2.8388 C.ar      1 <0>        -0.0352
     22 C16         0.6697    4.2561   -3.2457 C.ar      1 <0>        -0.0809
     23 Cl1         0.7738    1.6105   -3.8260 Cl        1 <0>        -0.0489
     24 O4         -0.6479    1.5217   -1.2267 O.3       1 <0>        -0.3070
     25 C17         0.0488    1.0428   -0.0746 C.3       1 <0>         0.0596
     26 C18        -0.6303    1.5164    1.2009 C.3       1 <0>        -0.1880
     27 C19        -0.5759    3.0279    1.3586 C.3       1 <0>         0.0582
     28 O5         -1.3238    3.6718    0.3250 O.3       1 <0>        -0.3113
     29 H1         -0.0951   13.3756   -9.0863 H         1 <0>         0.0567
     30 H2          0.7903   11.8508   -9.3300 H         1 <0>         0.0708
     31 H3         -0.7557   11.8511   -8.4477 H         1 <0>         0.0773
     32 H4          2.7595   11.9486   -6.7600 H         1 <0>         0.0579
     33 H5          2.7095   12.6319   -8.4028 H         1 <0>         0.0771
     34 H6          2.6297   13.7091   -6.9880 H         1 <0>         0.0642
     35 H7          1.7168   11.2650   -4.1866 H         1 <0>         0.1292
     36 H8          1.5408    9.0020   -3.2502 H         1 <0>         0.1242
     37 H9         -1.9451   10.7218   -6.3008 H         1 <0>         0.1439
     38 H10        -1.2039    6.7522   -3.8783 H         1 <0>         0.4276
     39 H11         0.8478    7.3677   -2.0375 H         1 <0>         0.0731
     40 H12         1.5957    6.7016   -3.5090 H         1 <0>         0.0731
     41 H13        -0.6039    6.0018   -0.6509 H         1 <0>         0.1444
     42 H14         1.1901    4.4094   -4.1796 H         1 <0>         0.1452
     43 H15         0.0620   -0.0470   -0.0906 H         1 <0>         0.1058
     44 H16         1.0733    1.4143   -0.0948 H         1 <0>         0.0576
     45 H17        -1.6731    1.1997    1.1842 H         1 <0>         0.0856
     46 H18        -0.1366    1.0548    2.0560 H         1 <0>         0.0908
     47 H19         0.4620    3.3574    1.3090 H         1 <0>         0.0584
     48 H20        -0.9933    3.3022    2.3275 H         1 <0>         0.1060
     49 O6         -3.3337    8.6233   -6.3962 O.co2     1 <0>        -0.7429
@<TRIPOS>BOND
     1    1    2 1
     2    1   29 1
     3    1   30 1
     4    1   31 1
     5    2    3 1
     6    2    4 1
     7    3   32 1
     8    3   33 1
     9    3   34 1
    10    4    5 2
    11    4    6 2
    12    4    7 1
    13    7   12 ar
    14    7    8 ar
    15    8    9 ar
    16    8   35 1
    17    9   10 ar
    18    9   36 1
    19   10   11 ar
    20   10   15 1
    21   11   12 ar
    22   11   13 1
    23   12   37 1
    24   13   14 2
    25   13   49 1
    26   15   16 1
    27   15   38 1
    28   16   17 1
    29   16   39 1
    30   16   40 1
    31   17   22 ar
    32   17   18 ar
    33   18   19 ar
    34   18   41 1
    35   19   28 1
    36   19   20 ar
    37   20   21 ar
    38   20   24 1
    39   21   22 ar
    40   21   23 1
    41   22   42 1
    42   24   25 1
    43   25   26 1
    44   25   43 1
    45   25   44 1
    46   26   27 1
    47   26   45 1
    48   26   46 1
    49   27   28 1
    50   27   47 1
    51   27   48 1
@<TRIPOS>MOLECULE
ZINC13415295
   56    58     0     0     0
SMALL
USER_CHARGES
5-[(E)-3-[[4-[[(2S,6S)-2,6-dimethyl-1-piperidyl]sulfonyl]phenyl]amino]-3-oxo-prop-1-enyl]-2-methyl-furan-3-carboxylic acid
@<TRIPOS>ATOM
      1 C1          5.1610    1.0037  -13.2198 C.3       1 <0>        -0.0714
      2 C2          4.6715    1.8474  -12.0710 C.2       1 <0>         0.0520
      3 C3          4.6963    3.2252  -12.0138 C.2       1 <0>        -0.2153
      4 C4          4.1415    3.5852  -10.7601 C.2       1 <0>        -0.0814
      5 C5          3.8132    2.4201  -10.1303 C.2       1 <0>        -0.0780
      6 O1          4.1447    1.3877  -10.9326 O.3       1 <0>        -0.1707
      7 C6          3.2270    2.3124   -8.8442 C.2       1 <0>         0.0770
      8 C7          2.9475    1.0910   -8.3268 C.2       1 <0>        -0.2741
      9 C8          2.3620    0.9834   -7.0423 C.2       1 <0>         0.5624
     10 O2          2.1094    1.9881   -6.4022 O.2       1 <0>        -0.5295
     11 N1          2.0842   -0.2310   -6.5279 N.am      1 <0>        -0.6792
     12 C9          1.4210   -0.3356   -5.3015 C.ar      1 <0>         0.2154
     13 C10         1.7281   -1.3732   -4.4305 C.ar      1 <0>        -0.1707
     14 C11         1.0709   -1.4739   -3.2201 C.ar      1 <0>         0.0011
     15 C12         0.1077   -0.5435   -2.8750 C.ar      1 <0>        -0.6992
     16 C13        -0.2040    0.4877   -3.7420 C.ar      1 <0>        -0.0035
     17 C14         0.4535    0.5975   -4.9516 C.ar      1 <0>        -0.1417
     18 S1         -0.7292   -0.6764   -1.3301 S.o2      1 <0>         2.6914
     19 O3         -0.7997   -2.0623   -1.0243 O.2       1 <0>        -0.9632
     20 O4         -1.8864    0.1430   -1.4233 O.2       1 <0>        -0.9539
     21 N2          0.2472    0.0122   -0.1835 N.pl3     1 <0>        -0.9883
     22 C15         1.1338   -0.8193    0.6420 C.3       1 <0>         0.1415
     23 H1          0.9336   -1.8727    0.4464 H         1 <0>         0.1035
     24 C16         0.8652   -0.5111    2.1184 C.3       1 <0>        -0.1252
     25 C17         1.0130    0.9934    2.3565 C.3       1 <0>        -0.1206
     26 C18        -0.0148    1.7488    1.5107 C.3       1 <0>        -0.1267
     27 C19         0.2438    1.4662    0.0274 C.3       1 <0>         0.1521
     28 H2          1.2106    1.8794   -0.2601 H         1 <0>         0.0770
     29 C20        -0.8614    2.1043   -0.8166 C.3       1 <0>        -0.1856
     30 C21         2.5927   -0.5009    0.3088 C.3       1 <0>        -0.1673
     31 C22         5.1996    4.1421  -13.0517 C.2       1 <0>         0.5163
     32 O5          5.6524    3.6972  -14.0879 O.co2     1 <0>        -0.6290
     33 H3          6.2145    0.7659  -13.0728 H         1 <0>         0.0823
     34 H4          4.5830    0.0807  -13.2648 H         1 <0>         0.0666
     35 H5          5.0395    1.5544  -14.1526 H         1 <0>         0.1141
     36 H6          4.0050    4.5862  -10.3782 H         1 <0>         0.1604
     37 H7          3.0030    3.2034   -8.2765 H         1 <0>         0.1575
     38 H8          3.1716    0.2000   -8.8945 H         1 <0>         0.1306
     39 H9          2.3442   -1.0323   -7.0086 H         1 <0>         0.4159
     40 H10         2.4801   -2.1001   -4.6995 H         1 <0>         0.1356
     41 H11         1.3091   -2.2804   -2.5424 H         1 <0>         0.1383
     42 H12        -0.9596    1.2103   -3.4712 H         1 <0>         0.1460
     43 H13         0.2124    1.4054   -5.6265 H         1 <0>         0.1455
     44 H14        -0.1469   -0.8227    2.3768 H         1 <0>         0.0682
     45 H15         1.5817   -1.0497    2.7387 H         1 <0>         0.0756
     46 H16         2.0175    1.3087    2.0745 H         1 <0>         0.0673
     47 H17         0.8464    1.2121    3.4112 H         1 <0>         0.0647
     48 H18         0.0754    2.8187    1.6983 H         1 <0>         0.0750
     49 H19        -1.0187    1.4165    1.7747 H         1 <0>         0.0697
     50 H20        -1.8344    1.8180   -0.4174 H         1 <0>         0.0964
     51 H21        -0.7612    3.1893   -0.7862 H         1 <0>         0.0698
     52 H22        -0.7759    1.7602   -1.8473 H         1 <0>         0.0643
     53 H23         2.7904    0.5516    0.5118 H         1 <0>         0.0651
     54 H24         3.2486   -1.1187    0.9222 H         1 <0>         0.0683
     55 H25         2.7784   -0.7089   -0.7449 H         1 <0>         0.0590
     56 O6          5.1578    5.4741  -12.8518 O.co2     1 <0>        -0.7513
@<TRIPOS>BOND
     1    1    2 1
     2    1   33 1
     3    1   34 1
     4    1   35 1
     5    2    6 1
     6    2    3 2
     7    3    4 1
     8    3   31 1
     9    4    5 2
    10    4   36 1
    11    5    6 1
    12    5    7 1
    13    7    8 2
    14    7   37 1
    15    8    9 1
    16    8   38 1
    17    9   10 2
    18    9   11 am
    19   11   12 1
    20   11   39 1
    21   12   17 ar
    22   12   13 ar
    23   13   14 ar
    24   13   40 1
    25   14   15 ar
    26   14   41 1
    27   15   16 ar
    28   15   18 1
    29   16   17 ar
    30   16   42 1
    31   17   43 1
    32   18   19 2
    33   18   20 2
    34   18   21 1
    35   21   27 1
    36   21   22 1
    37   22   23 1
    38   22   24 1
    39   22   30 1
    40   24   25 1
    41   24   44 1
    42   24   45 1
    43   25   26 1
    44   25   46 1
    45   25   47 1
    46   26   27 1
    47   26   48 1
    48   26   49 1
    49   27   28 1
    50   27   29 1
    51   29   50 1
    52   29   51 1
    53   29   52 1
    54   30   53 1
    55   30   54 1
    56   30   55 1
    57   31   32 2
    58   31   56 1
@<TRIPOS>MOLECULE
ZINC32522426
   46    48     0     0     0
SMALL
USER_CHARGES
ethyl 2-[[2-[(5-oxo-4H-1,2,4-triazin-3-yl)sulfanyl]acetyl]amino]-4-(p-tolyl)thiophene-3-carboxylate
@<TRIPOS>ATOM
      1 C1          1.4178    1.9774   -0.0009 C.3       1 <0>        -0.1547
      2 C2         -0.0176    1.4478    0.0100 C.3       1 <0>         0.0570
      3 O1          0.0021   -0.0041    0.0020 O.3       1 <0>        -0.3479
      4 C3         -1.1914   -0.6328    0.0100 C.2       1 <0>         0.5393
      5 O2         -2.2205    0.0158    0.0233 O.2       1 <0>        -0.4958
      6 C4         -1.2482   -2.0945    0.0027 C.2       1 <0>        -0.2216
      7 C5         -1.2895   -2.8483   -1.2362 C.2       1 <0>        -0.0234
      8 C6         -1.3403   -4.2003   -1.1266 C.2       1 <0>        -0.2328
      9 S1         -1.3331   -4.4693    0.6335 S.3       1 <0>         0.2519
     10 C7         -1.2592   -2.8289    1.1812 C.2       1 <0>         0.1055
     11 N1         -1.2222   -2.3603    2.4847 N.am      1 <0>        -0.6324
     12 C8         -1.2407   -3.2299    3.5142 C.2       1 <0>         0.5340
     13 O3         -1.2897   -4.4225    3.2998 O.2       1 <0>        -0.4823
     14 C9         -1.2004   -2.7202    4.9319 C.3       1 <0>        -0.1465
     15 S2         -1.2376   -4.1208    6.0778 S.3       1 <0>         0.0513
     16 C10        -1.1821   -3.2604    7.6144 C.ar      1 <0>         0.2618
     17 N2         -1.1977   -3.9607    8.7838 N.ar      1 <0>        -0.6147
     18 C11        -1.1495   -3.2746    9.9489 C.ar      1 <0>         0.4661
     19 O4         -1.1564   -3.8575   11.0201 O.3       1 <0>        -0.5945
     20 C12        -1.0962   -1.8652    9.8903 C.ar      1 <0>        -0.1315
     21 N3         -1.0898   -1.2683    8.7215 N.ar      1 <0>        -0.1993
     22 N4         -1.1311   -1.9387    7.6262 N.ar      1 <0>        -0.4257
     23 C13        -1.2772   -2.1751   -2.5567 C.ar      1 <0>        -0.0418
     24 C14        -2.1685   -1.1360   -2.8207 C.ar      1 <0>        -0.1027
     25 C15        -2.1495   -0.5101   -4.0505 C.ar      1 <0>        -0.1196
     26 C16        -1.2553   -0.9185   -5.0237 C.ar      1 <0>        -0.0844
     27 C17        -0.3718   -1.9522   -4.7691 C.ar      1 <0>        -0.1212
     28 C18        -0.3783   -2.5823   -3.5415 C.ar      1 <0>        -0.0953
     29 C19        -1.2439   -0.2351   -6.3668 C.3       1 <0>        -0.1172
     30 H1          1.4029    3.0773    0.0052 H         1 <0>         0.0808
     31 H2          1.9326    1.6227   -0.9059 H         1 <0>         0.0665
     32 H3          1.9498    1.6130    0.8902 H         1 <0>         0.0690
     33 H4         -0.5324    1.8025    0.9150 H         1 <0>         0.0728
     34 H5         -0.5497    1.8122   -0.8811 H         1 <0>         0.0701
     35 H6         -1.3759   -4.9357   -1.9167 H         1 <0>         0.1908
     36 H7         -1.1777   -1.2786    2.6792 H         1 <0>         0.4499
     37 H8         -0.2770   -2.1432    5.0880 H         1 <0>         0.1318
     38 H9         -2.0718   -2.0740    5.1142 H         1 <0>         0.1317
     39 H10        -1.0605   -1.2833   10.7994 H         1 <0>         0.1492
     40 H11        -2.8701   -0.8193   -2.0632 H         1 <0>         0.1295
     41 H12        -2.8367    0.2977   -4.2547 H         1 <0>         0.1222
     42 H13         0.3240   -2.2668   -5.5328 H         1 <0>         0.1238
     43 H14         0.3114   -3.3897   -3.3441 H         1 <0>         0.1264
     44 H15        -0.4725   -0.6920   -7.0041 H         1 <0>         0.0652
     45 H16        -1.0225    0.8340   -6.2323 H         1 <0>         0.0691
     46 H17        -2.2284   -0.3484   -6.8442 H         1 <0>         0.0697
@<TRIPOS>BOND
     1    1    2 1
     2    1   30 1
     3    1   31 1
     4    1   32 1
     5    2    3 1
     6    2   33 1
     7    2   34 1
     8    3    4 1
     9    4    5 2
    10    4    6 1
    11    6   10 2
    12    6    7 1
    13    7    8 2
    14    7   23 1
    15    8    9 1
    16    8   35 1
    17    9   10 1
    18   10   11 1
    19   11   12 am
    20   11   36 1
    21   12   13 2
    22   12   14 1
    23   14   15 1
    24   14   37 1
    25   14   38 1
    26   15   16 1
    27   16   22 ar
    28   16   17 ar
    29   17   18 ar
    30   18   19 1
    31   18   20 ar
    32   20   21 ar
    33   20   39 1
    34   21   22 ar
    35   23   28 ar
    36   23   24 ar
    37   24   25 ar
    38   24   40 1
    39   25   26 ar
    40   25   41 1
    41   26   27 ar
    42   26   29 1
    43   27   28 ar
    44   27   42 1
    45   28   43 1
    46   29   44 1
    47   29   45 1
    48   29   46 1
@<TRIPOS>MOLECULE
ZINC13256326
   46    49     0     0     0
SMALL
USER_CHARGES

@<TRIPOS>ATOM
      1 C1         -0.0184    1.5028    0.0103 C.3       1 <0>        -0.1026
      2 C2          0.0021   -0.0041    0.0020 C.2       1 <0>        -0.0609
      3 C3          0.0054   -0.6995   -1.2071 C.2       1 <0>        -0.2139
      4 C4         -0.0088   -0.1684   -2.5901 C.2       1 <0>         0.5605
      5 O1         -0.0261    1.0316   -2.7984 O.2       1 <0>        -0.5124
      6 N1         -0.0016   -1.0471   -3.6113 N.am      1 <0>        -0.6321
      7 H1         -0.0103   -0.7159   -4.5230 H         1 <0>         0.4169
      8 C5          0.0181   -2.3845   -3.3912 C.2       1 <0>         0.3845
      9 N2          0.0311   -2.8859   -2.1861 N.2       1 <0>        -0.4615
     10 C6          0.0256   -2.1103   -1.1093 C.2       1 <0>         0.0400
     11 S1          0.0383   -2.4024    0.6415 S.3       1 <0>         0.1924
     12 C7          0.0233   -0.7033    1.1878 C.2       1 <0>        -0.1609
     13 C8          0.0295   -0.1991    2.5134 C.2       1 <0>         0.5521
     14 O2          0.0149    1.0101    2.7088 O.co2     1 <0>        -0.6550
     15 O3          0.0495   -0.9729    3.4629 O.co2     1 <0>        -0.6762
     16 C9          0.0248   -3.3200   -4.5726 C.3       1 <0>        -0.0677
     17 S2          0.0517   -5.0360   -3.9849 S.3       1 <0>         0.0980
     18 C10         0.0571   -5.9932   -5.4643 C.2       1 <0>         0.2470
     19 N3          0.0496   -5.5019   -6.6792 N.2       1 <0>        -0.4996
     20 C11         0.0578   -6.5174   -7.5820 C.ar      1 <0>         0.0593
     21 C12         0.0551   -6.5598   -8.9786 C.ar      1 <0>        -0.0676
     22 C13         0.0659   -7.7750   -9.6258 C.ar      1 <0>        -0.1257
     23 C14         0.0788   -8.9580   -8.9019 C.ar      1 <0>        -0.1037
     24 C15         0.0811   -8.9332   -7.5224 C.ar      1 <0>        -0.1082
     25 C16         0.0713   -7.7185   -6.8539 C.ar      1 <0>         0.0541
     26 N4          0.0758   -7.3584   -5.5161 N.pl3     1 <0>        -0.4697
     27 C17         0.0937   -8.2714   -4.3705 C.3       1 <0>         0.1115
     28 C18        -1.3424   -8.6096   -3.9654 C.3       1 <0>         0.0461
     29 O4         -1.3249   -9.5002   -2.8480 O.3       1 <0>        -0.3855
     30 C19        -2.6230   -9.8809   -2.3877 C.3       1 <0>         0.0328
     31 H2          1.0042    1.8801    0.0026 H         1 <0>         0.0617
     32 H3         -0.5455    1.8639   -0.8728 H         1 <0>         0.0636
     33 H4         -0.5286    1.8543    0.9071 H         1 <0>         0.0976
     34 H5         -0.8707   -3.1552   -5.1717 H         1 <0>         0.1307
     35 H6          0.9091   -3.1305   -5.1812 H         1 <0>         0.1311
     36 H7          0.0444   -5.6424   -9.5485 H         1 <0>         0.1294
     37 H8          0.0638   -7.8073  -10.7054 H         1 <0>         0.1296
     38 H9          0.0868   -9.9048   -9.4214 H         1 <0>         0.1300
     39 H10         0.0905   -9.8579   -6.9644 H         1 <0>         0.1222
     40 H11         0.6194   -9.1864   -4.6434 H         1 <0>         0.1032
     41 H12         0.6045   -7.7946   -3.5339 H         1 <0>         0.1095
     42 H13        -1.8680   -7.6946   -3.6926 H         1 <0>         0.0634
     43 H14        -1.8532   -9.0864   -4.8020 H         1 <0>         0.0551
     44 H15        -3.1604  -10.3840   -3.1916 H         1 <0>         0.0418
     45 H16        -2.5237  -10.5568   -1.5384 H         1 <0>         0.0919
     46 H17        -3.1753   -8.9922   -2.0822 H         1 <0>         0.0473
@<TRIPOS>BOND
     1    1    2 1
     2    1   31 1
     3    1   32 1
     4    1   33 1
     5    2   12 2
     6    2    3 1
     7    3   10 2
     8    3    4 1
     9    4    5 2
    10    4    6 am
    11    6    7 1
    12    6    8 1
    13    8    9 2
    14    8   16 1
    15    9   10 1
    16   10   11 1
    17   11   12 1
    18   12   13 1
    19   13   14 2
    20   13   15 1
    21   16   17 1
    22   16   34 1
    23   16   35 1
    24   17   18 1
    25   18   26 1
    26   18   19 2
    27   19   20 1
    28   20   25 ar
    29   20   21 ar
    30   21   22 ar
    31   21   36 1
    32   22   23 ar
    33   22   37 1
    34   23   24 ar
    35   23   38 1
    36   24   25 ar
    37   24   39 1
    38   25   26 1
    39   26   27 1
    40   27   28 1
    41   27   40 1
    42   27   41 1
    43   28   29 1
    44   28   42 1
    45   28   43 1
    46   29   30 1
    47   30   44 1
    48   30   45 1
    49   30   46 1
@<TRIPOS>MOLECULE
ZINC44893920
   52    55     0     0     0
SMALL
USER_CHARGES

@<TRIPOS>ATOM
      1 C1         -0.0173    1.4248    0.0099 C.3       1 <0>         0.0252
      2 O1          0.0021   -0.0041    0.0020 O.3       1 <0>        -0.3083
      3 C2          0.6066   -0.6079   -1.0571 C.ar      1 <0>         0.0708
      4 C3          1.1727    0.1595   -2.0619 C.ar      1 <0>        -0.1195
      5 C4          1.7869   -0.4531   -3.1381 C.ar      1 <0>        -0.1053
      6 C5          1.8378   -1.8370   -3.2144 C.ar      1 <0>         0.1378
      7 C6          1.2723   -2.6088   -2.2107 C.ar      1 <0>        -0.2617
      8 C7          0.6614   -1.9963   -1.1285 C.ar      1 <0>         0.1345
      9 O2          0.1116   -2.7512   -0.1400 O.3       1 <0>        -0.3020
     10 C8          0.2050   -4.1703   -0.2792 C.3       1 <0>         0.0266
     11 O3          2.4421   -2.4374   -4.2743 O.3       1 <0>        -0.3072
     12 C9          2.4580   -3.8662   -4.2882 C.3       1 <0>         0.0285
     13 C10         2.4015    0.3839   -4.2302 C.3       1 <0>         0.0456
     14 H1          2.8369   -0.2641   -4.9909 H         1 <0>         0.1082
     15 C11         3.4855    1.2923   -3.6401 C.3       1 <0>        -0.0846
     16 C12         2.8912    2.4744   -2.9323 C.2       1 <0>         0.3052
     17 N1          1.7828    3.0423   -3.3036 N.2       1 <0>        -0.4718
     18 C13         1.1010    2.5223   -4.3700 C.2       1 <0>         0.0716
     19 C14         1.3468    1.2661   -4.8531 C.2       1 <0>        -0.0501
     20 N2          0.5180    1.0287   -5.9009 N.pl3     1 <0>        -0.3814
     21 C15        -0.2715    2.1009   -6.1308 C.2       1 <0>         0.0145
     22 C16         0.0398    3.0852   -5.2032 C.2       1 <0>        -0.1525
     23 C17        -0.5688    4.4133   -5.0835 C.2       1 <0>         0.5448
     24 O4         -1.4549    4.7525   -5.8570 O.co2     1 <0>        -0.7021
     25 O5         -0.1909    5.1832   -4.2100 O.co2     1 <0>        -0.6721
     26 C18         0.4857   -0.1609   -6.6407 C.ar      1 <0>         0.1701
     27 C19         1.6639   -0.7036   -7.1368 C.ar      1 <0>        -0.1248
     28 C20         1.6304   -1.8761   -7.8658 C.ar      1 <0>        -0.0700
     29 C21         0.4251   -2.5109   -8.1028 C.ar      1 <0>        -0.1617
     30 C22        -0.7521   -1.9728   -7.6103 C.ar      1 <0>         0.1162
     31 C23        -0.7230   -0.8017   -6.8741 C.ar      1 <0>        -0.1585
     32 F1         -1.9285   -2.5945   -7.8441 F         1 <0>        -0.1364
     33 O6          3.5391    2.9719   -1.8575 O.3       1 <0>        -0.4764
     34 H2          1.0053    1.8021    0.0021 H         1 <0>         0.0546
     35 H3         -0.5445    1.7859   -0.8732 H         1 <0>         0.0604
     36 H4         -0.5275    1.7763    0.9067 H         1 <0>         0.1008
     37 H5          1.1338    1.2373   -2.0046 H         1 <0>         0.1515
     38 H6          1.3121   -3.6864   -2.2702 H         1 <0>         0.1398
     39 H7         -0.2960   -4.4791   -1.1966 H         1 <0>         0.0524
     40 H8          1.2542   -4.4629   -0.3220 H         1 <0>         0.0527
     41 H9         -0.2718   -4.6513    0.5748 H         1 <0>         0.1000
     42 H10         1.4344   -4.2410   -4.2838 H         1 <0>         0.0514
     43 H11         2.9688   -4.2152   -5.1856 H         1 <0>         0.0993
     44 H12         2.9827   -4.2324   -3.4058 H         1 <0>         0.0524
     45 H13         4.0844    0.7184   -2.9329 H         1 <0>         0.1000
     46 H14         4.1298    1.6464   -4.4448 H         1 <0>         0.0994
     47 H15        -1.0190    2.1786   -6.9064 H         1 <0>         0.1744
     48 H16         2.6061   -0.2088   -6.9528 H         1 <0>         0.1350
     49 H17         2.5468   -2.2976   -8.2517 H         1 <0>         0.1388
     50 H18         0.4017   -3.4276   -8.6732 H         1 <0>         0.1369
     51 H19        -1.6402   -0.3842   -6.4858 H         1 <0>         0.1427
     52 H20         3.1008    3.7320   -1.4511 H         1 <0>         0.4044
@<TRIPOS>BOND
     1    1    2 1
     2    1   34 1
     3    1   35 1
     4    1   36 1
     5    2    3 1
     6    3    8 ar
     7    3    4 ar
     8    4    5 ar
     9    4   37 1
    10    5    6 ar
    11    5   13 1
    12    6    7 ar
    13    6   11 1
    14    7    8 ar
    15    7   38 1
    16    8    9 1
    17    9   10 1
    18   10   39 1
    19   10   40 1
    20   10   41 1
    21   11   12 1
    22   12   42 1
    23   12   43 1
    24   12   44 1
    25   13   14 1
    26   13   19 1
    27   13   15 1
    28   15   16 1
    29   15   45 1
    30   15   46 1
    31   16   17 2
    32   16   33 1
    33   17   18 1
    34   18   22 1
    35   18   19 2
    36   19   20 1
    37   20   21 1
    38   20   26 1
    39   21   22 2
    40   21   47 1
    41   22   23 1
    42   23   24 2
    43   23   25 1
    44   26   31 ar
    45   26   27 ar
    46   27   28 ar
    47   27   48 1
    48   28   29 ar
    49   28   49 1
    50   29   30 ar
    51   29   50 1
    52   30   31 ar
    53   30   32 1
    54   31   51 1
    55   33   52 1
@<TRIPOS>MOLECULE
ZINC13052204
   53    55     0     0     0
SMALL
USER_CHARGES
2-[2-[ethyl-(4-fluorophenyl)amino]-2-oxo-ethyl]sulfanyl-3-[(2S)-2-hydroxypropyl]-4-oxo-quinazoline-7-carboxylic acid
@<TRIPOS>ATOM
      1 C1         -0.8633    1.6036   -1.2264 C.3       1 <0>        -0.1737
      2 C2         -0.0650    1.0957   -0.0240 C.3       1 <0>         0.0977
      3 N1         -0.6984    1.5583    1.2133 N.am      1 <0>        -0.5664
      4 C3         -0.3213    2.7832    1.7774 C.ar      1 <0>         0.1334
      5 C4         -1.2184    3.8427    1.8023 C.ar      1 <0>        -0.0737
      6 C5         -0.8468    5.0479    2.3652 C.ar      1 <0>        -0.1427
      7 C6          0.4239    5.2041    2.8928 C.ar      1 <0>         0.0985
      8 C7          1.3222    4.1507    2.8634 C.ar      1 <0>        -0.1429
      9 C8          0.9522    2.9418    2.3074 C.ar      1 <0>        -0.0897
     10 F1          0.7876    6.3858    3.4375 F         1 <0>        -0.1385
     11 C9         -1.6441    0.8049    1.8088 C.2       1 <0>         0.5391
     12 O1         -2.2356    1.2292    2.7790 O.2       1 <0>        -0.5111
     13 C10        -1.9666   -0.5647    1.2691 C.3       1 <0>        -0.1444
     14 S1         -3.2675   -1.3191    2.2764 S.3       1 <0>         0.0500
     15 C11        -3.4404   -2.8637    1.4462 C.2       1 <0>         0.3364
     16 N2         -2.6811   -3.1018    0.4054 N.2       1 <0>        -0.5149
     17 C12        -2.7613   -4.2673   -0.2787 C.ar      1 <0>         0.1354
     18 C13        -1.9498   -4.5192   -1.3885 C.ar      1 <0>        -0.0730
     19 C14        -2.0670   -5.7300   -2.0591 C.ar      1 <0>        -0.0691
     20 C15        -2.9893   -6.6935   -1.6303 C.ar      1 <0>        -0.0868
     21 C16        -3.7872   -6.4585   -0.5476 C.ar      1 <0>        -0.0634
     22 C17        -3.6864   -5.2498    0.1406 C.ar      1 <0>        -0.1917
     23 C18        -4.5263   -4.9555    1.3126 C.2       1 <0>         0.5602
     24 O2         -5.3418   -5.7607    1.7223 O.2       1 <0>        -0.4957
     25 N3         -4.3556   -3.7591    1.9209 N.am      1 <0>        -0.5263
     26 C19        -5.1630   -3.4193    3.0952 C.3       1 <0>         0.0986
     27 C20        -6.4511   -2.7269    2.6454 C.3       1 <0>         0.0846
     28 H1         -6.2031   -1.8659    2.0246 H         1 <0>         0.0635
     29 C21        -7.2353   -2.2609    3.8738 C.3       1 <0>        -0.1825
     30 O3         -7.2469   -3.6440    1.8920 O.3       1 <0>        -0.5493
     31 C22        -1.2113   -6.0045   -3.2345 C.2       1 <0>         0.4886
     32 O4         -0.4100   -5.1726   -3.6097 O.co2     1 <0>        -0.6229
     33 H2         -1.8822    1.2199   -1.1743 H         1 <0>         0.0607
     34 H3         -0.8844    2.6934   -1.2144 H         1 <0>         0.0598
     35 H4         -0.3921    1.2595   -2.1470 H         1 <0>         0.0784
     36 H5         -0.0440    0.0060   -0.0360 H         1 <0>         0.0950
     37 H6          0.9539    1.4794   -0.0761 H         1 <0>         0.0880
     38 H7         -2.2080    3.7227    1.3866 H         1 <0>         0.1344
     39 H8         -1.5460    5.8706    2.3894 H         1 <0>         0.1398
     40 H9          2.3127    4.2744    3.2757 H         1 <0>         0.1407
     41 H10         1.6529    2.1202    2.2853 H         1 <0>         0.1376
     42 H11        -2.3099   -0.4775    0.2383 H         1 <0>         0.1338
     43 H12        -1.0732   -1.1883    1.3031 H         1 <0>         0.1344
     44 H13        -1.2375   -3.7788   -1.7216 H         1 <0>         0.1433
     45 H14        -3.0702   -7.6304   -2.1613 H         1 <0>         0.1424
     46 H15        -4.4952   -7.2074   -0.2247 H         1 <0>         0.1333
     47 H16        -5.4114   -4.3295    3.6410 H         1 <0>         0.1096
     48 H17        -4.5978   -2.7497    3.7434 H         1 <0>         0.1071
     49 H18        -6.6283   -1.5614    4.4485 H         1 <0>         0.0709
     50 H19        -8.1529   -1.7676    3.5534 H         1 <0>         0.0648
     51 H20        -7.4833   -3.1218    4.4946 H         1 <0>         0.0676
     52 H21        -8.0808   -3.2719    1.5739 H         1 <0>         0.3756
     53 O5         -1.3209   -7.1768   -3.8883 O.co2     1 <0>        -0.7440
@<TRIPOS>BOND
     1    1    2 1
     2    1   33 1
     3    1   34 1
     4    1   35 1
     5    2    3 1
     6    2   36 1
     7    2   37 1
     8    3    4 1
     9    3   11 am
    10    4    9 ar
    11    4    5 ar
    12    5    6 ar
    13    5   38 1
    14    6    7 ar
    15    6   39 1
    16    7    8 ar
    17    7   10 1
    18    8    9 ar
    19    8   40 1
    20    9   41 1
    21   11   12 2
    22   11   13 1
    23   13   14 1
    24   13   42 1
    25   13   43 1
    26   14   15 1
    27   15   25 1
    28   15   16 2
    29   16   17 1
    30   17   22 ar
    31   17   18 ar
    32   18   19 ar
    33   18   44 1
    34   19   20 ar
    35   19   31 1
    36   20   21 ar
    37   20   45 1
    38   21   22 ar
    39   21   46 1
    40   22   23 1
    41   23   24 2
    42   23   25 am
    43   25   26 1
    44   26   27 1
    45   26   47 1
    46   26   48 1
    47   27   28 1
    48   27   29 1
    49   27   30 1
    50   29   49 1
    51   29   50 1
    52   29   51 1
    53   30   52 1
    54   31   32 2
    55   31   53 1
@<TRIPOS>MOLECULE
ZINC13210364
   57    59     0     0     0
SMALL
USER_CHARGES
3-[5,7-dimethyl-2-[(1S)-1-methyl-2-oxo-2-[(2,4,6-trimethylphenyl)amino]ethyl]sulfanyl-[1,2,4]triazolo[1,5-a]pyrimidin-6-yl]propanoic acid
@<TRIPOS>ATOM
      1 C1         -1.2671    1.9963   -0.1356 C.3       1 <0>        -0.1142
      2 C2          0.0484    1.2635   -0.0759 C.ar      1 <0>        -0.0801
      3 C3          1.1005    1.7924    0.6490 C.ar      1 <0>        -0.1182
      4 C4          2.3092    1.1261    0.7010 C.ar      1 <0>        -0.0591
      5 C5          2.4674   -0.0760    0.0239 C.ar      1 <0>         0.1260
      6 C6          1.4089   -0.6045   -0.7032 C.ar      1 <0>        -0.0825
      7 C7          0.2026    0.0665   -0.7509 C.ar      1 <0>        -0.1187
      8 C8          1.5760   -1.9089   -1.4391 C.3       1 <0>        -0.1131
      9 N1          3.6906   -0.7535    0.0746 N.am      1 <0>        -0.6689
     10 C9          4.8216   -0.1325   -0.3151 C.2       1 <0>         0.5403
     11 O1          4.7938    1.0398   -0.6251 O.2       1 <0>        -0.4997
     12 C10         6.1206   -0.8947   -0.3658 C.3       1 <0>        -0.1163
     13 H1          5.9395   -1.8958   -0.7571 H         1 <0>         0.1243
     14 C11         6.7075   -0.9965    1.0435 C.3       1 <0>        -0.1444
     15 S1          7.2899   -0.0255   -1.4464 S.3       1 <0>         0.1049
     16 C12         8.6836   -1.1012   -1.5191 C.2       1 <0>         0.2293
     17 N2          8.7841   -2.2729   -0.8953 N.2       1 <0>        -0.5358
     18 C13         9.9630   -2.8241   -1.1640 C.2       1 <0>         0.4568
     19 N3         10.5277   -3.9755   -0.7825 N.2       1 <0>        -0.4712
     20 C14        11.7324   -4.3040   -1.1922 C.2       1 <0>         0.2483
     21 C15        12.4474   -3.4495   -2.0388 C.2       1 <0>        -0.1687
     22 C16        11.8815   -2.2781   -2.4312 C.2       1 <0>         0.1960
     23 N4         10.6347   -1.9677   -1.9902 N.pl3     1 <0>        -0.3158
     24 N5          9.7863   -0.8734   -2.2042 N.2       1 <0>        -0.3120
     25 C17        12.6261   -1.3371   -3.3429 C.3       1 <0>        -0.1242
     26 C18        13.8292   -3.8237   -2.5096 C.3       1 <0>        -0.0524
     27 C19        13.7266   -4.6112   -3.8174 C.3       1 <0>        -0.1529
     28 C20        15.1084   -4.9855   -4.2881 C.2       1 <0>         0.4613
     29 O2         16.0760   -4.6562   -3.6437 O.co2     1 <0>        -0.6387
     30 C21        12.3468   -5.6064   -0.7479 C.3       1 <0>        -0.1153
     31 C22         3.4551    1.7030    1.4917 C.3       1 <0>        -0.1095
     32 H2         -1.9063    1.6624    0.6817 H         1 <0>         0.0704
     33 H3         -1.0905    3.0680   -0.0443 H         1 <0>         0.0666
     34 H4         -1.7559    1.7884   -1.0874 H         1 <0>         0.0664
     35 H5          0.9771    2.7276    1.1748 H         1 <0>         0.1247
     36 H6         -0.6210   -0.3440   -1.3162 H         1 <0>         0.1252
     37 H7          1.9334   -1.7126   -2.4500 H         1 <0>         0.0734
     38 H8          2.2986   -2.5328   -0.9131 H         1 <0>         0.0635
     39 H9          0.6170   -2.4248   -1.4866 H         1 <0>         0.0697
     40 H10         3.7247   -1.6701    0.3902 H         1 <0>         0.4105
     41 H11         6.8886    0.0046    1.4349 H         1 <0>         0.0713
     42 H12         6.0048   -1.5187    1.6929 H         1 <0>         0.0693
     43 H13         7.6471   -1.5477    1.0069 H         1 <0>         0.0917
     44 H14        12.3987   -1.5808   -4.3807 H         1 <0>         0.0981
     45 H15        12.3201   -0.3118   -3.1350 H         1 <0>         0.0861
     46 H16        13.6979   -1.4381   -3.1724 H         1 <0>         0.1060
     47 H17        14.4141   -2.9190   -2.6752 H         1 <0>         0.0862
     48 H18        14.3169   -4.4382   -1.7528 H         1 <0>         0.0913
     49 H19        13.1417   -5.5159   -3.6518 H         1 <0>         0.0674
     50 H20        13.2390   -3.9967   -4.5742 H         1 <0>         0.0647
     51 H21        12.0883   -6.3912   -1.4587 H         1 <0>         0.0991
     52 H22        13.4306   -5.5000   -0.7023 H         1 <0>         0.0995
     53 H23        11.9657   -5.8700    0.2388 H         1 <0>         0.0879
     54 H24         3.9756    2.4462    0.8877 H         1 <0>         0.0863
     55 H25         3.0713    2.1743    2.3965 H         1 <0>         0.0611
     56 H26         4.1472    0.9057    1.7628 H         1 <0>         0.0579
     57 O3         15.2643   -5.6847   -5.4232 O.co2     1 <0>        -0.7699
@<TRIPOS>BOND
     1    1    2 1
     2    1   32 1
     3    1   33 1
     4    1   34 1
     5    2    7 ar
     6    2    3 ar
     7    3    4 ar
     8    3   35 1
     9    4    5 ar
    10    4   31 1
    11    5    6 ar
    12    5    9 1
    13    6    7 ar
    14    6    8 1
    15    7   36 1
    16    8   37 1
    17    8   38 1
    18    8   39 1
    19    9   10 am
    20    9   40 1
    21   10   11 2
    22   10   12 1
    23   12   13 1
    24   12   14 1
    25   12   15 1
    26   14   41 1
    27   14   42 1
    28   14   43 1
    29   15   16 1
    30   16   24 2
    31   16   17 1
    32   17   18 2
    33   18   23 1
    34   18   19 1
    35   19   20 2
    36   20   21 1
    37   20   30 1
    38   21   22 2
    39   21   26 1
    40   22   23 1
    41   22   25 1
    42   23   24 1
    43   25   44 1
    44   25   45 1
    45   25   46 1
    46   26   27 1
    47   26   47 1
    48   26   48 1
    49   27   28 1
    50   27   49 1
    51   27   50 1
    52   28   29 2
    53   28   57 1
    54   30   51 1
    55   30   52 1
    56   30   53 1
    57   31   54 1
    58   31   55 1
    59   31   56 1
@<TRIPOS>MOLECULE
ZINC13275270
   34    35     0     0     0
SMALL
USER_CHARGES
2-[[4-(4-bromo-2-chloro-phenoxy)-3-nitro-benzoyl]amino]acetic acid
@<TRIPOS>ATOM
      1 C1          0.9471    7.2283   -0.1772 C.ar      1 <0>         0.0055
      2 C2          1.0190    5.8565   -0.0799 C.ar      1 <0>        -0.2023
      3 C3          2.2549    5.2206   -0.0963 C.ar      1 <0>         0.2042
      4 C4          3.4232    5.9665   -0.2062 C.ar      1 <0>        -0.0763
      5 C5          3.3593    7.3378   -0.3097 C.ar      1 <0>         0.0340
      6 C6          2.1186    7.9809   -0.2931 C.ar      1 <0>        -0.1494
      7 C7          2.0460    9.4514   -0.3981 C.2       1 <0>         0.5510
      8 O1          3.0664   10.1048   -0.4988 O.2       1 <0>        -0.5403
      9 N1          0.8486   10.0698   -0.3823 N.am      1 <0>        -0.6937
     10 C8          0.7765   11.5293   -0.4866 C.3       1 <0>         0.0744
     11 C9         -0.6655   11.9653   -0.4447 C.2       1 <0>         0.4600
     12 O2         -1.5429   11.1414   -0.3387 O.co2     1 <0>        -0.6368
     13 N2          4.7371    5.2848   -0.2175 N.pl3     1 <0>         0.0365
     14 O3          5.7610    5.9374   -0.3137 O.2       1 <0>        -0.1669
     15 O4          4.7943    4.0712   -0.1307 O.3       1 <0>        -0.1372
     16 O5          2.3217    3.8688    0.0007 O.3       1 <0>        -0.2138
     17 C10         1.1559    3.1700   -0.0078 C.ar      1 <0>         0.0935
     18 C11         0.5951    2.7399    1.1860 C.ar      1 <0>        -0.0956
     19 C12        -0.5895    2.0295    1.1753 C.ar      1 <0>        -0.0713
     20 C13        -1.2201    1.7510   -0.0244 C.ar      1 <0>        -0.0757
     21 C14        -0.6608    2.1740   -1.2168 C.ar      1 <0>        -0.0697
     22 C15         0.5247    2.8853   -1.2111 C.ar      1 <0>        -0.0421
     23 Cl1         1.2229    3.4223   -2.7070 Cl        1 <0>        -0.0301
     24 Br1        -2.8454    0.7845   -0.0346 Br        1 <0>        -0.0228
     25 H1         -0.0135    7.7218   -0.1636 H         1 <0>         0.1583
     26 H2          0.1140    5.2741    0.0097 H         1 <0>         0.1545
     27 H3          4.2670    7.9162   -0.3991 H         1 <0>         0.1764
     28 H4          0.0345    9.5485   -0.3019 H         1 <0>         0.4063
     29 H5          1.3166   11.9801    0.3459 H         1 <0>         0.0788
     30 H6          1.2256   11.8490   -1.4269 H         1 <0>         0.0787
     31 H7          1.0843    2.9606    2.1232 H         1 <0>         0.1562
     32 H8         -1.0263    1.6949    2.1047 H         1 <0>         0.1527
     33 H9         -1.1527    1.9524   -2.1523 H         1 <0>         0.1548
     34 O6         -0.9751   13.2689   -0.5253 O.co2     1 <0>        -0.7516
@<TRIPOS>BOND
     1    1    6 ar
     2    1    2 ar
     3    1   25 1
     4    2    3 ar
     5    2   26 1
     6    3    4 ar
     7    3   16 1
     8    4    5 ar
     9    4   13 1
    10    5    6 ar
    11    5   27 1
    12    6    7 1
    13    7    8 2
    14    7    9 am
    15    9   10 1
    16    9   28 1
    17   10   11 1
    18   10   29 1
    19   10   30 1
    20   11   12 2
    21   11   34 1
    22   13   14 2
    23   13   15 1
    24   16   17 1
    25   17   22 ar
    26   17   18 ar
    27   18   19 ar
    28   18   31 1
    29   19   20 ar
    30   19   32 1
    31   20   21 ar
    32   20   24 1
    33   21   22 ar
    34   21   33 1
    35   22   23 1
@<TRIPOS>MOLECULE
ZINC35002980
   59    62     0     0     0
SMALL
USER_CHARGES

@<TRIPOS>ATOM
      1 C1         -1.1107    0.7883    1.5083 C.3       1 <0>        -0.1495
      2 C2         -0.8310   -0.6575    1.0930 C.3       1 <0>         0.0518
      3 O1         -2.0540   -1.2866    0.7049 O.3       1 <0>        -0.3102
      4 C3         -1.9685   -2.5514    0.2124 C.ar      1 <0>         0.1003
      5 C4         -0.7511   -3.2131    0.2058 C.ar      1 <0>        -0.1888
      6 C5         -0.6661   -4.4989   -0.2947 C.ar      1 <0>        -0.0405
      7 C6         -1.7936   -5.1273   -0.7899 C.ar      1 <0>        -0.1007
      8 C7         -3.0112   -4.4725   -0.7867 C.ar      1 <0>        -0.1118
      9 C8         -3.1046   -3.1859   -0.2807 C.ar      1 <0>         0.0623
     10 O2         -4.3027   -2.5426   -0.2712 O.3       1 <0>        -0.4899
     11 C9          0.6588   -5.2171   -0.3011 C.3       1 <0>         0.2631
     12 H1          1.3922   -4.6549    0.2769 H         1 <0>         0.0684
     13 C10         1.1444   -5.3987   -1.7202 C.2       1 <0>        -0.5079
     14 C11         1.4451   -4.3357   -2.6845 C.2       1 <0>         0.5083
     15 C12         2.5656   -3.4079   -2.4346 C.ar      1 <0>        -0.1623
     16 C13         3.3096   -3.5029   -1.2544 C.ar      1 <0>        -0.0322
     17 C14         4.3552   -2.6409   -1.0251 C.ar      1 <0>        -0.1534
     18 C15         4.6842   -1.6622   -1.9652 C.ar      1 <0>         0.1174
     19 C16         3.9348   -1.5672   -3.1349 C.ar      1 <0>        -0.1928
     20 C17         2.8955   -2.4300   -3.3791 C.ar      1 <0>        -0.0240
     21 C18         4.5063   -0.4122   -3.9349 C.3       1 <0>        -0.1031
     22 C19         5.3646    0.3170   -2.8743 C.3       1 <0>         0.0762
     23 H2          4.7913    1.1084   -2.3914 H         1 <0>         0.0847
     24 O3          5.6742   -0.7304   -1.9396 O.3       1 <0>        -0.3031
     25 C20         6.6398    0.8813   -3.5038 C.3       1 <0>        -0.1489
     26 O4          0.7708   -4.2184   -3.6908 O.2       1 <0>        -0.4767
     27 C21         1.2484   -6.7316   -1.9299 C.2       1 <0>         0.2684
     28 O5          1.6536   -7.3148   -3.0815 O.3       1 <0>        -0.6526
     29 C22         0.8494   -7.4491   -0.7009 C.2       1 <0>         0.5167
     30 O6          0.8359   -8.6571   -0.5720 O.2       1 <0>        -0.5199
     31 N1          0.5038   -6.5668    0.2542 N.am      1 <0>        -0.6108
     32 C23         0.0531   -6.8951    1.6089 C.3       1 <0>         0.1398
     33 C24        -1.4697   -7.0429    1.6179 C.3       1 <0>         0.0332
     34 O7         -1.8444   -8.1627    0.8131 O.3       1 <0>        -0.3686
     35 C25        -3.2539   -8.3902    0.7538 C.3       1 <0>         0.0326
     36 H3         -0.1778    1.2682    1.8043 H         1 <0>         0.0758
     37 H4         -1.5472    1.3295    0.6689 H         1 <0>         0.0640
     38 H5         -1.8061    0.7972    2.3476 H         1 <0>         0.0644
     39 H6         -0.1356   -0.6664    0.2537 H         1 <0>         0.0619
     40 H7         -0.3945   -1.1987    1.9324 H         1 <0>         0.0603
     41 H8          0.1313   -2.7243    0.5914 H         1 <0>         0.1289
     42 H9         -1.7230   -6.1317   -1.1804 H         1 <0>         0.1282
     43 H10        -3.8904   -4.9654   -1.1744 H         1 <0>         0.1295
     44 H11        -4.4814   -2.0321   -1.0728 H         1 <0>         0.3805
     45 H12         3.0616   -4.2556   -0.5207 H         1 <0>         0.1433
     46 H13         4.9259   -2.7208   -0.1117 H         1 <0>         0.1284
     47 H14         2.3306   -2.3509   -4.2962 H         1 <0>         0.1309
     48 H15         5.1259   -0.7752   -4.7550 H         1 <0>         0.0894
     49 H16         3.7120    0.2356   -4.3058 H         1 <0>         0.0891
     50 H17         6.3748    1.5891   -4.2892 H         1 <0>         0.0777
     51 H18         7.2279    1.3897   -2.7398 H         1 <0>         0.0666
     52 H19         7.2252    0.0670   -3.9309 H         1 <0>         0.0675
     53 H20         0.5110   -7.8317    1.9271 H         1 <0>         0.0865
     54 H21         0.3448   -6.0975    2.2922 H         1 <0>         0.0877
     55 H22        -1.8135   -7.1992    2.6404 H         1 <0>         0.0489
     56 H23        -1.9250   -6.1379    1.2158 H         1 <0>         0.0611
     57 H24        -3.6347   -8.5744    1.7584 H         1 <0>         0.0341
     58 H25        -3.7462   -7.5131    0.3338 H         1 <0>         0.0377
     59 H26        -3.4559   -9.2567    0.1241 H         1 <0>         0.0821
@<TRIPOS>BOND
     1    1    2 1
     2    1   36 1
     3    1   37 1
     4    1   38 1
     5    2    3 1
     6    2   39 1
     7    2   40 1
     8    3    4 1
     9    4    9 ar
    10    4    5 ar
    11    5    6 ar
    12    5   41 1
    13    6    7 ar
    14    6   11 1
    15    7    8 ar
    16    7   42 1
    17    8    9 ar
    18    8   43 1
    19    9   10 1
    20   10   44 1
    21   11   13 1
    22   11   31 1
    23   11   12 1
    24   13   27 2
    25   13   14 1
    26   14   26 2
    27   14   15 1
    28   15   20 ar
    29   15   16 ar
    30   16   17 ar
    31   16   45 1
    32   17   18 ar
    33   17   46 1
    34   18   24 1
    35   18   19 ar
    36   19   20 ar
    37   19   21 1
    38   20   47 1
    39   21   22 1
    40   21   48 1
    41   21   49 1
    42   22   23 1
    43   22   24 1
    44   22   25 1
    45   25   50 1
    46   25   51 1
    47   25   52 1
    48   27   29 1
    49   27   28 1
    50   29   31 am
    51   29   30 2
    52   31   32 1
    53   32   33 1
    54   32   53 1
    55   32   54 1
    56   33   34 1
    57   33   55 1
    58   33   56 1
    59   34   35 1
    60   35   57 1
    61   35   58 1
    62   35   59 1
@<TRIPOS>MOLECULE
ZINC58557214
   57    61     0     0     0
SMALL
USER_CHARGES

@<TRIPOS>ATOM
      1 C1          0.7556    1.5429    0.0677 C.3       1 <0>        -0.1164
      2 C2          0.6924    0.0373    0.0487 C.ar      1 <0>        -0.0435
      3 C3          0.7121   -0.6397   -1.1567 C.ar      1 <0>        -0.1630
      4 C4          0.6547   -2.0210   -1.1775 C.ar      1 <0>        -0.0441
      5 C5          0.5769   -2.7281    0.0066 C.ar      1 <0>        -0.1595
      6 C6          0.5569   -2.0512    1.2174 C.ar      1 <0>         0.1406
      7 C7          0.6204   -0.6654    1.2358 C.ar      1 <0>        -0.2177
      8 O1          0.4804   -2.7446    2.3837 O.3       1 <0>        -0.3014
      9 C8          0.4642   -1.9819    3.5921 C.3       1 <0>         0.0353
     10 C9          0.3756   -2.9280    4.7912 C.3       1 <0>         0.1308
     11 H1         -0.4907   -3.5795    4.6768 H         1 <0>         0.1181
     12 C10         0.2327   -2.1104    6.0765 C.3       1 <0>        -0.1912
     13 S1          0.1277   -3.2321    7.4982 S.3       1 <0>         0.1000
     14 C11        -0.0314   -2.1529    8.8819 C.ar      1 <0>         0.2101
     15 C12        -0.1355   -2.6603   10.1861 C.ar      1 <0>        -0.3104
     16 C13        -0.1191   -4.0971   10.4856 C.2       1 <0>         0.5408
     17 O2         -0.0121   -4.9223    9.5937 O.2       1 <0>        -0.5299
     18 N1         -0.2249   -4.4783   11.7711 N.2       1 <0>        -0.6550
     19 C14        -0.3403   -3.6016   12.7410 C.2       1 <0>         0.6308
     20 O3         -0.4416   -4.0544   14.0063 O.3       1 <0>        -0.6497
     21 N2         -0.3619   -2.2596   12.5306 N.pl3     1 <0>        -0.5001
     22 C15        -0.2608   -1.7555   11.2559 C.ar      1 <0>         0.4541
     23 N3         -0.2761   -0.4544   10.9959 N.ar      1 <0>        -0.5560
     24 C16        -0.1756   -0.0193    9.7547 C.ar      1 <0>         0.3998
     25 N4         -0.0510   -0.8292    8.7217 N.ar      1 <0>        -0.5681
     26 C17        -0.1982    1.4671    9.5073 C.3       1 <0>        -0.0940
     27 C18        -0.2838    1.9403    8.0549 C.3       1 <0>        -0.1537
     28 C19         1.0256    2.0896    8.8322 C.3       1 <0>        -0.1552
     29 C20        -0.4936   -1.3454   13.6678 C.3       1 <0>         0.0799
     30 C21         0.4654   -0.1550   13.7320 C.3       1 <0>        -0.1574
     31 C22         0.6387   -1.3299   14.6966 C.3       1 <0>        -0.1592
     32 O4          1.5622   -3.7212    4.8607 O.3       1 <0>        -0.5390
     33 C23         0.6764   -2.7557   -2.4931 C.3       1 <0>        -0.1150
     34 H2          1.7970    1.8623    0.1087 H         1 <0>         0.0723
     35 H3          0.2898    1.9376   -0.8352 H         1 <0>         0.0679
     36 H4          0.2259    1.9178    0.9435 H         1 <0>         0.0668
     37 H5          0.7722   -0.0886   -2.0836 H         1 <0>         0.1213
     38 H6          0.5313   -3.8070   -0.0102 H         1 <0>         0.1303
     39 H7          0.6095   -0.1364    2.1773 H         1 <0>         0.1265
     40 H8          1.3780   -1.3918    3.6616 H         1 <0>         0.0680
     41 H9         -0.3989   -1.3162    3.5900 H         1 <0>         0.0737
     42 H10         1.0990   -1.4589    6.1909 H         1 <0>         0.0925
     43 H11        -0.6724   -1.5054    6.0234 H         1 <0>         0.0995
     44 H12        -0.7134    2.0614   10.2619 H         1 <0>         0.1285
     45 H13        -0.3238    1.1765    7.2782 H         1 <0>         0.1067
     46 H14        -0.8556    2.8461    7.8536 H         1 <0>         0.0978
     47 H15         1.3152    3.0936    9.1422 H         1 <0>         0.1009
     48 H16         1.8470    1.4240    8.5669 H         1 <0>         0.0946
     49 H17        -1.5089   -1.1944   14.0345 H         1 <0>         0.1166
     50 H18         1.1944   -0.0520   12.9281 H         1 <0>         0.0953
     51 H19         0.0811    0.7795   14.1409 H         1 <0>         0.1000
     52 H20         0.3684   -1.1684   15.7401 H         1 <0>         0.1010
     53 H21         1.4817   -1.9999   14.5274 H         1 <0>         0.0947
     54 H22         2.3742   -3.2062    4.9630 H         1 <0>         0.3749
     55 H23         1.7076   -2.9761   -2.7692 H         1 <0>         0.0730
     56 H24         0.1186   -3.6873   -2.3983 H         1 <0>         0.0688
     57 H25         0.2188   -2.1350   -3.2635 H         1 <0>         0.0678
@<TRIPOS>BOND
     1    1    2 1
     2    1   34 1
     3    1   35 1
     4    1   36 1
     5    2    7 ar
     6    2    3 ar
     7    3    4 ar
     8    3   37 1
     9    4    5 ar
    10    4   33 1
    11    5    6 ar
    12    5   38 1
    13    6    7 ar
    14    6    8 1
    15    7   39 1
    16    8    9 1
    17    9   10 1
    18    9   40 1
    19    9   41 1
    20   10   11 1
    21   10   12 1
    22   10   32 1
    23   12   13 1
    24   12   42 1
    25   12   43 1
    26   13   14 1
    27   14   25 ar
    28   14   15 ar
    29   15   22 ar
    30   15   16 1
    31   16   17 2
    32   16   18 1
    33   18   19 2
    34   19   20 1
    35   19   21 1
    36   21   22 1
    37   21   29 1
    38   22   23 ar
    39   23   24 ar
    40   24   25 ar
    41   24   26 1
    42   26   28 1
    43   26   27 1
    44   26   44 1
    45   27   28 1
    46   27   45 1
    47   27   46 1
    48   28   47 1
    49   28   48 1
    50   29   31 1
    51   29   30 1
    52   29   49 1
    53   30   31 1
    54   30   50 1
    55   30   51 1
    56   31   52 1
    57   31   53 1
    58   32   54 1
    59   33   55 1
    60   33   56 1
    61   33   57 1
@<TRIPOS>MOLECULE
ZINC13035501
   56    59     0     0     0
SMALL
USER_CHARGES
3-[3-[2-[[(3S)-2,3-dihydro-1,4-benzodioxin-3-yl]methylamino]-2-oxo-ethyl]sulfanyl-5-(m-tolyl)-1,2,4-triazol-4-yl]propanoic acid
@<TRIPOS>ATOM
      1 C1         -5.1237    8.3836   10.2939 C.3       1 <0>        -0.1112
      2 C2         -4.7920    8.6787    8.8538 C.ar      1 <0>        -0.0921
      3 C3         -5.0066    9.9462    8.3416 C.ar      1 <0>        -0.1081
      4 C4         -4.7044   10.2255    7.0209 C.ar      1 <0>        -0.1082
      5 C5         -4.1824    9.2415    6.2064 C.ar      1 <0>        -0.1165
      6 C6         -3.9682    7.9599    6.7153 C.ar      1 <0>        -0.0125
      7 C7         -4.2748    7.6848    8.0491 C.ar      1 <0>        -0.0781
      8 C8         -3.4131    6.8996    5.8473 C.2       1 <0>         0.2242
      9 N1         -3.4799    5.6055    6.0566 N.2       1 <0>        -0.2751
     10 N2         -2.8978    4.9757    5.0995 N.2       1 <0>        -0.2984
     11 C9         -2.4158    5.8301    4.2246 C.2       1 <0>         0.1395
     12 N3         -2.7295    7.0832    4.6675 N.pl3     1 <0>        -0.4426
     13 C10        -2.4057    8.3574    4.0211 C.3       1 <0>         0.1085
     14 C11        -3.4983    8.7081    3.0091 C.3       1 <0>        -0.1784
     15 C12        -3.1652   10.0188    2.3442 C.2       1 <0>         0.4700
     16 O1         -2.1574   10.6116    2.6485 O.co2     1 <0>        -0.6351
     17 S1         -1.5355    5.4324    2.7509 S.3       1 <0>         0.0943
     18 C13        -1.5259    3.6262    2.8683 C.3       1 <0>        -0.1530
     19 C14        -0.8038    3.0493    1.6780 C.2       1 <0>         0.5373
     20 O2         -0.3412    3.7866    0.8335 O.2       1 <0>        -0.5172
     21 N4         -0.6721    1.7139    1.5520 N.am      1 <0>        -0.7218
     22 C15         0.0299    1.1530    0.3949 C.3       1 <0>         0.1324
     23 C16         0.0379   -0.3737    0.4941 C.3       1 <0>         0.0392
     24 H1         -0.9862   -0.7464    0.5108 H         1 <0>         0.0954
     25 C17         0.7851   -0.9667   -0.7082 C.3       1 <0>         0.0303
     26 O3          0.7852   -2.3924   -0.5774 O.3       1 <0>        -0.3035
     27 C18         1.1060   -2.8946    0.6463 C.ar      1 <0>         0.0475
     28 C19         1.4713   -4.2278    0.7608 C.ar      1 <0>        -0.1140
     29 C20         1.7962   -4.7530    1.9971 C.ar      1 <0>        -0.1161
     30 C21         1.7586   -3.9514    3.1229 C.ar      1 <0>        -0.1152
     31 C22         1.3968   -2.6220    3.0157 C.ar      1 <0>        -0.1122
     32 C23         1.0702   -2.0884    1.7777 C.ar      1 <0>         0.0522
     33 O4          0.7179   -0.7765    1.6880 O.3       1 <0>        -0.3007
     34 H2         -4.2518    8.5851   10.9162 H         1 <0>         0.0697
     35 H3         -5.9519    9.0164   10.6130 H         1 <0>         0.0663
     36 H4         -5.4073    7.3359   10.3941 H         1 <0>         0.0672
     37 H5         -5.4114   10.7209    8.9759 H         1 <0>         0.1248
     38 H6         -4.8735   11.2170    6.6275 H         1 <0>         0.1316
     39 H7         -3.9434    9.4619    5.1765 H         1 <0>         0.1410
     40 H8         -4.1079    6.6960    8.4501 H         1 <0>         0.1332
     41 H9         -2.3437    9.1419    4.7753 H         1 <0>         0.1101
     42 H10        -1.4485    8.2711    3.5070 H         1 <0>         0.1045
     43 H11        -3.5604    7.9235    2.2550 H         1 <0>         0.0801
     44 H12        -4.4556    8.7944    3.5232 H         1 <0>         0.0754
     45 H13        -2.5516    3.2577    2.8847 H         1 <0>         0.1271
     46 H14        -1.0168    3.3243    3.7836 H         1 <0>         0.1268
     47 H15        -1.0421    1.1241    2.2274 H         1 <0>         0.4090
     48 H16         1.0556    1.5215    0.3785 H         1 <0>         0.0851
     49 H17        -0.4793    1.4550   -0.5204 H         1 <0>         0.0978
     50 H18         0.2802   -0.6823   -1.6314 H         1 <0>         0.1283
     51 H19         1.8111   -0.5987   -0.7213 H         1 <0>         0.0836
     52 H20         1.5016   -4.8561   -0.1171 H         1 <0>         0.1344
     53 H21         2.0806   -5.7912    2.0838 H         1 <0>         0.1322
     54 H22         2.0120   -4.3650    4.0878 H         1 <0>         0.1327
     55 H23         1.3680   -1.9980    3.8967 H         1 <0>         0.1358
     56 O5         -3.9882   10.5276    1.4139 O.co2     1 <0>        -0.7576
@<TRIPOS>BOND
     1    1    2 1
     2    1   34 1
     3    1   35 1
     4    1   36 1
     5    2    7 ar
     6    2    3 ar
     7    3    4 ar
     8    3   37 1
     9    4    5 ar
    10    4   38 1
    11    5    6 ar
    12    5   39 1
    13    6    7 ar
    14    6    8 1
    15    7   40 1
    16    8   12 1
    17    8    9 2
    18    9   10 1
    19   10   11 2
    20   11   12 1
    21   11   17 1
    22   12   13 1
    23   13   14 1
    24   13   41 1
    25   13   42 1
    26   14   15 1
    27   14   43 1
    28   14   44 1
    29   15   16 2
    30   15   56 1
    31   17   18 1
    32   18   19 1
    33   18   45 1
    34   18   46 1
    35   19   20 2
    36   19   21 am
    37   21   22 1
    38   21   47 1
    39   22   23 1
    40   22   48 1
    41   22   49 1
    42   23   24 1
    43   23   33 1
    44   23   25 1
    45   25   26 1
    46   25   50 1
    47   25   51 1
    48   26   27 1
    49   27   32 ar
    50   27   28 ar
    51   28   29 ar
    52   28   52 1
    53   29   30 ar
    54   29   53 1
    55   30   31 ar
    56   30   54 1
    57   31   32 ar
    58   31   55 1
    59   32   33 1
@<TRIPOS>MOLECULE
ZINC13444947
   48    51     0     0     0
SMALL
USER_CHARGES
3-[2-[2-[(6-chloro-1,3-benzodioxol-5-yl)amino]-2-oxo-ethyl]sulfanyl-5,7-dimethyl-[1,2,4]triazolo[1,5-a]pyrimidin-6-yl]propanoic acid
@<TRIPOS>ATOM
      1 C1          1.1880    3.5591   -0.0682 C.3       1 <0>        -0.1155
      2 C2          1.1927    2.0521   -0.0680 C.2       1 <0>         0.2483
      3 C3         -0.0188    1.3517   -0.0630 C.2       1 <0>        -0.1676
      4 C4          0.0002   -0.0069   -0.0628 C.2       1 <0>         0.1963
      5 N1          1.1969   -0.6498   -0.0675 N.pl3     1 <0>        -0.3156
      6 C5          2.3623    0.0637   -0.0723 C.2       1 <0>         0.4577
      7 N2          2.3345    1.4014   -0.0735 N.2       1 <0>        -0.4709
      8 N3          3.3627   -0.8110   -0.0754 N.2       1 <0>        -0.5384
      9 C6          2.8759   -2.0500   -0.0728 C.2       1 <0>         0.2247
     10 N4          1.5587   -2.0034   -0.0680 N.2       1 <0>        -0.3108
     11 S1          3.8422   -3.5233   -0.0754 S.3       1 <0>         0.1145
     12 C7          5.5547   -2.9249   -0.0821 C.3       1 <0>        -0.1571
     13 C8          6.4976   -4.1005   -0.0848 C.2       1 <0>         0.5423
     14 O1          6.0576   -5.2309   -0.0825 O.2       1 <0>        -0.4971
     15 N5          7.8297   -3.8959   -0.0899 N.am      1 <0>        -0.6613
     16 C9          8.7064   -4.9854    0.0025 C.ar      1 <0>         0.1740
     17 C10         8.3752   -6.1954   -0.5920 C.ar      1 <0>        -0.0943
     18 C11         9.2415   -7.2716   -0.5005 C.ar      1 <0>         0.0624
     19 C12        10.4449   -7.1382    0.1885 C.ar      1 <0>         0.0307
     20 C13        10.7725   -5.9294    0.7807 C.ar      1 <0>        -0.0729
     21 C14         9.9094   -4.8532    0.6840 C.ar      1 <0>        -0.0562
     22 Cl1        10.3269   -3.3377    1.4208 Cl        1 <0>        -0.0420
     23 O2         11.1125   -8.3286    0.1344 O.3       1 <0>        -0.3034
     24 C15        10.1248   -9.3064   -0.2417 C.3       1 <0>         0.2126
     25 O3          9.1556   -8.5449   -0.9858 O.3       1 <0>        -0.3005
     26 C16        -1.2878   -0.7894   -0.0580 C.3       1 <0>        -0.1247
     27 C17        -1.3294    2.0957   -0.0641 C.3       1 <0>        -0.0524
     28 C18        -1.7740    2.3476    1.3781 C.3       1 <0>        -0.1544
     29 C19        -3.0846    3.0916    1.3770 C.2       1 <0>         0.4612
     30 O4         -3.6091    3.3897    0.3302 O.co2     1 <0>        -0.6383
     31 H1          1.1910    3.9226    0.9594 H         1 <0>         0.0995
     32 H2          2.0748    3.9251   -0.5857 H         1 <0>         0.0881
     33 H3          0.2949    3.9196   -0.5785 H         1 <0>         0.0997
     34 H4          5.7249   -2.3206   -0.9731 H         1 <0>         0.1324
     35 H5          5.7315   -2.3194    0.8068 H         1 <0>         0.1330
     36 H6          8.1817   -2.9945   -0.1574 H         1 <0>         0.4212
     37 H7          7.4420   -6.2972   -1.1260 H         1 <0>         0.1649
     38 H8         11.7056   -5.8259    1.3145 H         1 <0>         0.1524
     39 H9          9.6671   -9.7484    0.6433 H         1 <0>         0.0892
     40 H10        10.5697  -10.0781   -0.8699 H         1 <0>         0.1362
     41 H11        -1.6021   -0.9782   -1.0845 H         1 <0>         0.0963
     42 H12        -1.1344   -1.7385    0.4554 H         1 <0>         0.0878
     43 H13        -2.0585   -0.2173    0.4585 H         1 <0>         0.1067
     44 H14        -1.2056    3.0490   -0.5779 H         1 <0>         0.0923
     45 H15        -2.0843    1.5010   -0.5784 H         1 <0>         0.0854
     46 H16        -1.8978    1.3943    1.8919 H         1 <0>         0.0651
     47 H17        -1.0191    2.9422    1.8924 H         1 <0>         0.0681
     48 O5         -3.6691    3.4230    2.5389 O.co2     1 <0>        -0.7696
@<TRIPOS>BOND
     1    1    2 1
     2    1   31 1
     3    1   32 1
     4    1   33 1
     5    2    7 2
     6    2    3 1
     7    3    4 2
     8    3   27 1
     9    4    5 1
    10    4   26 1
    11    5   10 1
    12    5    6 1
    13    6    7 1
    14    6    8 2
    15    8    9 1
    16    9   10 2
    17    9   11 1
    18   11   12 1
    19   12   13 1
    20   12   34 1
    21   12   35 1
    22   13   14 2
    23   13   15 am
    24   15   16 1
    25   15   36 1
    26   16   21 ar
    27   16   17 ar
    28   17   18 ar
    29   17   37 1
    30   18   25 1
    31   18   19 ar
    32   19   20 ar
    33   19   23 1
    34   20   21 ar
    35   20   38 1
    36   21   22 1
    37   23   24 1
    38   24   25 1
    39   24   39 1
    40   24   40 1
    41   26   41 1
    42   26   42 1
    43   26   43 1
    44   27   28 1
    45   27   44 1
    46   27   45 1
    47   28   29 1
    48   28   46 1
    49   28   47 1
    50   29   30 2
    51   29   48 1
@<TRIPOS>MOLECULE
ZINC33518770
   48    51     0     0     0
SMALL
USER_CHARGES
3-[(5E)-5-[1-[2-(4-chloroanilino)-2-oxo-ethyl]-2-oxo-indolin-3-ylidene]-4-oxo-2-thioxo-thiazolidin-3-yl]propanoic acid
@<TRIPOS>ATOM
      1 C1         -8.0651   -6.5022   -1.0404 C.ar      1 <0>        -0.1431
      2 C2         -8.5117   -6.7567   -2.3266 C.ar      1 <0>        -0.0596
      3 C3         -7.7973   -6.3112   -3.4209 C.ar      1 <0>        -0.1415
      4 C4         -6.6169   -5.5992   -3.2412 C.ar      1 <0>         0.1819
      5 C5         -6.1677   -5.3433   -1.9376 C.ar      1 <0>        -0.1301
      6 C6         -6.8957   -5.7971   -0.8408 C.ar      1 <0>        -0.0356
      7 C7         -4.9092   -4.5803   -2.0713 C.2       1 <0>         0.0083
      8 C8         -4.1025   -4.1046   -1.0559 C.2       1 <0>        -0.1206
      9 C9         -2.8312   -3.3345   -1.1352 C.2       1 <0>         0.5218
     10 O1         -2.3358   -3.0223   -2.2001 O.2       1 <0>        -0.3947
     11 N1         -2.2703   -3.0092    0.0176 N.am      1 <0>        -0.5155
     12 C10        -2.8208   -3.3631    1.1960 C.2       1 <0>         0.2783
     13 S1         -2.2436   -3.0419    2.7754 S.2       1 <0>        -0.3010
     14 S2         -4.2975   -4.2442    0.7157 S.3       1 <0>         0.0673
     15 C11        -1.0169   -2.2509    0.0136 C.3       1 <0>         0.0980
     16 C12        -1.3272   -0.7527    0.0272 C.3       1 <0>        -0.1694
     17 C13        -0.0378    0.0274    0.0231 C.2       1 <0>         0.4742
     18 O2          1.0207   -0.5551    0.0105 O.co2     1 <0>        -0.6358
     19 O3         -0.0653    1.3693    0.0334 O.co2     1 <0>        -0.7626
     20 C14        -4.7049   -4.4314   -3.5266 C.2       1 <0>         0.5593
     21 O4         -3.7777   -3.8556   -4.0642 O.2       1 <0>        -0.4303
     22 N2         -5.7229   -5.0472   -4.1516 N.am      1 <0>        -0.5353
     23 C15        -5.8747   -5.1214   -5.6068 C.3       1 <0>         0.0970
     24 C16        -6.6622   -3.9313   -6.0910 C.2       1 <0>         0.4961
     25 O5         -7.0577   -3.1027   -5.2985 O.2       1 <0>        -0.4997
     26 N3         -6.9271   -3.7877   -7.4046 N.am      1 <0>        -0.6839
     27 C17        -7.7396   -2.7360   -7.8439 C.ar      1 <0>         0.1554
     28 C18        -8.5903   -2.9195   -8.9260 C.ar      1 <0>        -0.1336
     29 C19        -9.3947   -1.8817   -9.3542 C.ar      1 <0>        -0.0925
     30 C20        -9.3452   -0.6564   -8.7130 C.ar      1 <0>        -0.0503
     31 C21        -8.4945   -0.4693   -7.6376 C.ar      1 <0>        -0.0890
     32 C22        -7.6922   -1.5055   -7.2019 C.ar      1 <0>        -0.1096
     33 Cl1       -10.3525    0.6482   -9.2581 Cl        1 <0>        -0.0710
     34 H1         -8.6327   -6.8563   -0.1925 H         1 <0>         0.1376
     35 H2         -9.4279   -7.3088   -2.4750 H         1 <0>         0.1366
     36 H3         -8.1565   -6.5159   -4.4186 H         1 <0>         0.1290
     37 H4         -6.5466   -5.5985    0.1617 H         1 <0>         0.1328
     38 H5         -0.4279   -2.5115    0.9053 H         1 <0>         0.1201
     39 H6         -0.4417   -2.4980   -0.8909 H         1 <0>         0.1096
     40 H7         -1.9162   -0.4922   -0.8645 H         1 <0>         0.0698
     41 H8         -1.9024   -0.5056    0.9317 H         1 <0>         0.0762
     42 H9         -4.8815   -5.1208   -6.0795 H         1 <0>         0.1318
     43 H10        -6.4070   -6.0464   -5.8733 H         1 <0>         0.1273
     44 H11        -6.5048   -4.4970   -8.1316 H         1 <0>         0.4388
     45 H12        -8.6260   -3.8742   -9.4296 H         1 <0>         0.1358
     46 H13       -10.0595   -2.0251  -10.1932 H         1 <0>         0.1370
     47 H14        -8.4583    0.4877   -7.1384 H         1 <0>         0.1375
     48 H15        -7.0287   -1.3592   -6.3624 H         1 <0>         0.1474
@<TRIPOS>BOND
     1    1    6 ar
     2    1    2 ar
     3    1   34 1
     4    2    3 ar
     5    2   35 1
     6    3    4 ar
     7    3   36 1
     8    4   22 1
     9    4    5 ar
    10    5    6 ar
    11    5    7 1
    12    6   37 1
    13    7    8 2
    14    7   20 1
    15    8   14 1
    16    8    9 1
    17    9   10 2
    18    9   11 am
    19   11   12 1
    20   11   15 1
    21   12   13 2
    22   12   14 1
    23   15   16 1
    24   15   38 1
    25   15   39 1
    26   16   17 1
    27   16   40 1
    28   16   41 1
    29   17   18 2
    30   17   19 1
    31   20   21 2
    32   20   22 am
    33   22   23 1
    34   23   24 1
    35   23   42 1
    36   23   43 1
    37   24   25 2
    38   24   26 am
    39   26   27 1
    40   26   44 1
    41   27   32 ar
    42   27   28 ar
    43   28   29 ar
    44   28   45 1
    45   29   30 ar
    46   29   46 1
    47   30   31 ar
    48   30   33 1
    49   31   32 ar
    50   31   47 1
    51   32   48 1
@<TRIPOS>MOLECULE
ZINC39690569
   51    55     0     0     0
SMALL
USER_CHARGES

@<TRIPOS>ATOM
      1 C1         -0.0187    1.5258    0.0104 C.3       1 <0>        -0.1415
      2 C2          0.0021   -0.0041    0.0020 C.3       1 <0>         0.0939
      3 H1         -1.0123   -0.4029   -0.0029 H         1 <0>         0.1153
      4 C3          0.8003   -0.5489    1.2111 C.3       1 <0>        -0.1231
      5 H2          0.3985   -1.5057    1.5446 H         1 <0>         0.0881
      6 C4          2.1823   -0.7192    0.6173 C.2       1 <0>        -0.2881
      7 H3          5.3972   -1.1598    0.7214 H         1 <0>         0.4187
      8 C5          2.0491   -0.6579   -0.7569 C.2       1 <0>         0.3419
      9 N1          3.1570   -0.7712   -1.5133 N.2       1 <0>        -0.5165
     10 C6          4.3326   -0.9464   -0.9785 C.2       1 <0>         0.4183
     11 N2          4.5093   -1.0232    0.3554 N.am      1 <0>        -0.6247
     12 C7          3.4456   -0.9098    1.1818 C.2       1 <0>         0.5455
     13 O1          3.5858   -0.9722    2.3926 O.2       1 <0>        -0.5048
     14 C8          5.5333   -1.0676   -1.8811 C.3       1 <0>        -0.0795
     15 S1          5.0057   -0.9295   -3.6111 S.3       1 <0>         0.1204
     16 C9          6.5023   -1.0889   -4.5272 C.2       1 <0>         0.1502
     17 N3          7.7054   -1.2720   -4.0302 N.2       1 <0>        -0.2923
     18 N4          8.5694   -1.3453   -4.9784 N.2       1 <0>        -0.2634
     19 C10         7.9734   -1.2137   -6.1408 C.2       1 <0>         0.2294
     20 N5          6.6285   -1.0510   -5.8890 N.pl3     1 <0>        -0.4126
     21 C11         5.6045   -0.8794   -6.8307 C.ar      1 <0>         0.1012
     22 C12         5.2914   -1.9049   -7.7125 C.ar      1 <0>        -0.0963
     23 C13         4.2819   -1.7328   -8.6393 C.ar      1 <0>        -0.1065
     24 C14         3.5834   -0.5405   -8.6895 C.ar      1 <0>        -0.0994
     25 C15         3.8933    0.4830   -7.8128 C.ar      1 <0>        -0.1020
     26 C16         4.8976    0.3145   -6.8797 C.ar      1 <0>        -0.0970
     27 C17         8.6218   -1.2405   -7.4688 C.ar      1 <0>        -0.0184
     28 C18         7.9363   -0.7770   -8.5930 C.ar      1 <0>        -0.1041
     29 C19         8.5475   -0.8043   -9.8295 C.ar      1 <0>        -0.1173
     30 C20         9.8367   -1.2901   -9.9568 C.ar      1 <0>        -0.1051
     31 C21        10.5216   -1.7515   -8.8466 C.ar      1 <0>        -0.1194
     32 C22         9.9243   -1.7239   -7.6033 C.ar      1 <0>        -0.0744
     33 O2          0.7498   -0.4979   -1.1230 O.3       1 <0>        -0.2828
     34 C23         0.8169    0.4489    2.3403 C.2       1 <0>         0.5135
     35 O3          0.6992    0.0678    3.4924 O.co2     1 <0>        -0.6788
     36 O4          0.9479    1.6374    2.1017 O.co2     1 <0>        -0.6820
     37 H4          1.0039    1.9031    0.0027 H         1 <0>         0.0683
     38 H5         -0.5459    1.8868   -0.8726 H         1 <0>         0.0298
     39 H6         -0.5289    1.8773    0.9072 H         1 <0>         0.1015
     40 H7          6.2415   -0.2711   -1.6525 H         1 <0>         0.1351
     41 H8          6.0106   -2.0347   -1.7229 H         1 <0>         0.1348
     42 H9          5.8369   -2.8363   -7.6740 H         1 <0>         0.1300
     43 H10         4.0381   -2.5301   -9.3258 H         1 <0>         0.1359
     44 H11         2.7944   -0.4082   -9.4151 H         1 <0>         0.1339
     45 H12         3.3464    1.4134   -7.8548 H         1 <0>         0.1384
     46 H13         5.1357    1.1123   -6.1917 H         1 <0>         0.1353
     47 H14         6.9297   -0.3982   -8.4951 H         1 <0>         0.1287
     48 H15         8.0183   -0.4460  -10.7001 H         1 <0>         0.1278
     49 H16        10.3105   -1.3097  -10.9272 H         1 <0>         0.1265
     50 H17        11.5276   -2.1297   -8.9529 H         1 <0>         0.1306
     51 H18        10.4616   -2.0802   -6.7368 H         1 <0>         0.1367
@<TRIPOS>BOND
     1    1    2 1
     2    1   37 1
     3    1   38 1
     4    1   39 1
     5    2    3 1
     6    2    4 1
     7    2   33 1
     8    4    5 1
     9    4   34 1
    10    4    6 1
    11    6    8 2
    12    6   12 1
    13    7   11 1
    14    8    9 1
    15    8   33 1
    16    9   10 2
    17   10   11 1
    18   10   14 1
    19   11   12 am
    20   12   13 2
    21   14   15 1
    22   14   40 1
    23   14   41 1
    24   15   16 1
    25   16   20 1
    26   16   17 2
    27   17   18 1
    28   18   19 2
    29   19   20 1
    30   19   27 1
    31   20   21 1
    32   21   26 ar
    33   21   22 ar
    34   22   23 ar
    35   22   42 1
    36   23   24 ar
    37   23   43 1
    38   24   25 ar
    39   24   44 1
    40   25   26 ar
    41   25   45 1
    42   26   46 1
    43   27   32 ar
    44   27   28 ar
    45   28   29 ar
    46   28   47 1
    47   29   30 ar
    48   29   48 1
    49   30   31 ar
    50   30   49 1
    51   31   32 ar
    52   31   50 1
    53   32   51 1
    54   34   35 2
    55   34   36 1
@<TRIPOS>MOLECULE
ZINC05316355
   56    59     0     0     0
SMALL
USER_CHARGES

@<TRIPOS>ATOM
      1 C1         -2.5998    0.1145   -1.8420 C.3       1 <0>         0.0340
      2 O1         -2.3187   -1.2845   -1.7643 O.3       1 <0>        -0.3511
      3 C2         -1.4360   -1.7814   -2.6530 C.2       1 <0>         0.5076
      4 O2         -0.9190   -1.0469   -3.4715 O.2       1 <0>        -0.4956
      5 C3         -1.0975   -3.2156   -2.6322 C.ar      1 <0>        -0.1833
      6 C4         -1.7748   -4.0854   -1.7735 C.ar      1 <0>        -0.0384
      7 C5         -1.4536   -5.4252   -1.7589 C.ar      1 <0>        -0.1712
      8 C6         -0.4607   -5.9164   -2.5918 C.ar      1 <0>        -0.0576
      9 C7          0.2175   -5.0700   -3.4451 C.ar      1 <0>        -0.1568
     10 C8         -0.0968   -3.7174   -3.4790 C.ar      1 <0>         0.2363
     11 N1          0.5809   -2.8636   -4.3429 N.am      1 <0>        -0.6504
     12 C9          1.1634   -3.3536   -5.4551 C.2       1 <0>         0.5228
     13 O3          1.0084   -4.5199   -5.7587 O.2       1 <0>        -0.5267
     14 C10         1.9922   -2.4706   -6.3073 C.2       1 <0>         0.2483
     15 O4          2.1647   -1.1718   -5.9693 O.3       1 <0>        -0.6328
     16 C11         2.5772   -2.9627   -7.4244 C.2       1 <0>        -0.4564
     17 C12         3.3977   -2.0885   -8.2680 C.2       1 <0>         0.4065
     18 O5          3.5529   -0.9201   -7.9640 O.2       1 <0>        -0.4527
     19 C13         4.0352   -2.6247   -9.4853 C.ar      1 <0>        -0.1049
     20 C14         3.8560   -3.9622   -9.8419 C.ar      1 <0>        -0.0697
     21 C15         4.4543   -4.4583  -10.9810 C.ar      1 <0>        -0.1354
     22 C16         5.2362   -3.6378  -11.7799 C.ar      1 <0>        -0.1020
     23 C17         5.4277   -2.3136  -11.4472 C.ar      1 <0>        -0.1584
     24 C18         4.8262   -1.7878  -10.3013 C.ar      1 <0>         0.0988
     25 N2          5.0063   -0.4782   -9.9707 N.2       1 <0>        -0.3864
     26 C19         6.2098    0.0250   -9.9303 C.2       1 <0>         0.1885
     27 C20         7.4162   -0.8716  -10.1028 C.3       1 <0>        -0.1709
     28 C21         8.4633   -0.4255   -9.0964 C.2       1 <0>         0.3411
     29 O6          9.0078   -1.2051   -8.3517 O.2       1 <0>        -0.3913
     30 C22         8.7817    1.0428   -9.0827 C.2       1 <0>         0.3696
     31 O7          9.9132    1.4466   -8.9071 O.2       1 <0>        -0.4043
     32 C23         7.6522    1.9719   -9.2936 C.ar      1 <0>        -0.1514
     33 C24         6.4021    1.4684   -9.7229 C.ar      1 <0>         0.0033
     34 C25         5.3452    2.3532   -9.9415 C.ar      1 <0>        -0.0742
     35 C26         5.5268    3.7068   -9.7342 C.ar      1 <0>        -0.0852
     36 C27         6.7506    4.1992   -9.3097 C.ar      1 <0>        -0.1200
     37 C28         7.8134    3.3399   -9.0801 C.ar      1 <0>        -0.0593
     38 H1         -1.6801    0.6789   -1.6882 H         1 <0>         0.0620
     39 H2         -3.0098    0.3487   -2.8244 H         1 <0>         0.0612
     40 H3         -3.3238    0.3829   -1.0727 H         1 <0>         0.1005
     41 H4         -2.5489   -3.7079   -1.1219 H         1 <0>         0.1367
     42 H5         -1.9781   -6.0961   -1.0947 H         1 <0>         0.1276
     43 H6         -0.2160   -6.9681   -2.5727 H         1 <0>         0.1297
     44 H7          0.9902   -5.4605   -4.0907 H         1 <0>         0.1577
     45 H8          0.6343   -1.9156   -4.1449 H         1 <0>         0.4339
     46 H9          2.4394   -3.9993   -7.6942 H         1 <0>         0.0992
     47 H10         3.2489   -4.6087   -9.2255 H         1 <0>         0.1406
     48 H11         4.3130   -5.4939  -11.2527 H         1 <0>         0.1244
     49 H12         5.6991   -4.0392  -12.6694 H         1 <0>         0.1235
     50 H13         6.0389   -1.6819  -12.0748 H         1 <0>         0.1238
     51 H14         7.1375   -1.9080   -9.9124 H         1 <0>         0.1216
     52 H15         7.8093   -0.7728  -11.1146 H         1 <0>         0.1331
     53 H16         4.3870    1.9803  -10.2719 H         1 <0>         0.1468
     54 H17         4.7066    4.3884   -9.9050 H         1 <0>         0.1346
     55 H18         6.8750    5.2598   -9.1483 H         1 <0>         0.1335
     56 H19         8.7652    3.7284   -8.7492 H         1 <0>         0.1391
@<TRIPOS>BOND
     1    1    2 1
     2    1   38 1
     3    1   39 1
     4    1   40 1
     5    2    3 1
     6    3    4 2
     7    3    5 1
     8    5   10 ar
     9    5    6 ar
    10    6    7 ar
    11    6   41 1
    12    7    8 ar
    13    7   42 1
    14    8    9 ar
    15    8   43 1
    16    9   10 ar
    17    9   44 1
    18   10   11 1
    19   11   12 am
    20   11   45 1
    21   12   13 2
    22   12   14 1
    23   14   15 1
    24   14   16 2
    25   16   17 1
    26   16   46 1
    27   17   18 2
    28   17   19 1
    29   19   24 ar
    30   19   20 ar
    31   20   21 ar
    32   20   47 1
    33   21   22 ar
    34   21   48 1
    35   22   23 ar
    36   22   49 1
    37   23   24 ar
    38   23   50 1
    39   24   25 1
    40   25   26 2
    41   26   33 1
    42   26   27 1
    43   27   28 1
    44   27   52 1
    45   27   51 1
    46   28   29 2
    47   28   30 1
    48   30   31 2
    49   30   32 1
    50   32   37 ar
    51   32   33 ar
    52   33   34 ar
    53   34   35 ar
    54   34   53 1
    55   35   36 ar
    56   35   54 1
    57   36   37 ar
    58   36   55 1
    59   37   56 1
@<TRIPOS>MOLECULE
ZINC13020498
   48    50     0     0     0
SMALL
USER_CHARGES
2-[3-[2-oxo-2-(phenylcarbamoylamino)ethyl]sulfanyl-5-(p-tolyl)-1,2,4-triazol-4-yl]acetic acid
@<TRIPOS>ATOM
      1 C1         -1.0232    5.5648    0.1418 C.3       1 <0>        -0.1130
      2 C2         -0.8019    4.0753    0.0819 C.ar      1 <0>        -0.0801
      3 C3          0.3435    3.5266    0.6308 C.ar      1 <0>        -0.1262
      4 C4          0.5520    2.1638    0.5797 C.ar      1 <0>        -0.0751
      5 C5         -0.3954    1.3383   -0.0279 C.ar      1 <0>        -0.0164
      6 C6         -1.5457    1.8990   -0.5852 C.ar      1 <0>        -0.0974
      7 C7         -1.7448    3.2627   -0.5222 C.ar      1 <0>        -0.1160
      8 C8         -0.1786   -0.1229   -0.0862 C.2       1 <0>         0.2326
      9 N1          0.9605   -0.7504    0.0927 N.2       1 <0>        -0.2797
     10 N2          0.7867   -2.0179   -0.0277 N.2       1 <0>        -0.3019
     11 C9         -0.4746   -2.2776   -0.2910 C.2       1 <0>         0.1455
     12 N3         -1.1337   -1.0822   -0.3324 N.pl3     1 <0>        -0.4146
     13 C10        -2.5599   -0.8661   -0.5880 C.3       1 <0>         0.0409
     14 C11        -2.7803   -0.6613   -2.0646 C.2       1 <0>         0.4550
     15 O1         -1.8423   -0.6927   -2.8255 O.co2     1 <0>        -0.6068
     16 S1         -1.1842   -3.8714   -0.5381 S.3       1 <0>         0.0925
     17 C12         0.2852   -4.9063   -0.3233 C.3       1 <0>        -0.1523
     18 C13        -0.0914   -6.3552   -0.4957 C.2       1 <0>         0.5397
     19 O2         -1.2396   -6.6583   -0.7396 O.2       1 <0>        -0.4425
     20 N4          0.8484   -7.3142   -0.3787 N.am      1 <0>        -0.6835
     21 C14         0.5116   -8.6101   -0.5329 C.2       1 <0>         0.6957
     22 O3         -0.6396   -8.9139   -0.7774 O.2       1 <0>        -0.5063
     23 N5          1.4513   -9.5691   -0.4159 N.am      1 <0>        -0.6797
     24 C15         1.1264  -10.9035   -0.6840 C.ar      1 <0>         0.1609
     25 C16         1.7338  -11.9253    0.0340 C.ar      1 <0>        -0.1454
     26 C17         1.4066  -13.2411   -0.2291 C.ar      1 <0>        -0.1016
     27 C18         0.4835  -13.5420   -1.2137 C.ar      1 <0>        -0.1358
     28 C19        -0.1185  -12.5271   -1.9346 C.ar      1 <0>        -0.0985
     29 C20         0.2000  -11.2090   -1.6725 C.ar      1 <0>        -0.1190
     30 H1         -0.5933    6.0319   -0.7442 H         1 <0>         0.0705
     31 H2         -2.0927    5.7720    0.1791 H         1 <0>         0.0664
     32 H3         -0.5438    5.9677    1.0339 H         1 <0>         0.0651
     33 H4          1.0757    4.1664    1.1006 H         1 <0>         0.1260
     34 H5          1.4464    1.7367    1.0085 H         1 <0>         0.1337
     35 H6         -2.2804    1.2662   -1.0608 H         1 <0>         0.1393
     36 H7         -2.6367    3.6973   -0.9488 H         1 <0>         0.1279
     37 H8         -3.1249   -1.7362   -0.2535 H         1 <0>         0.1050
     38 H9         -2.8968    0.0167   -0.0445 H         1 <0>         0.1093
     39 H10         1.0332   -4.6342   -1.0680 H         1 <0>         0.1341
     40 H11         0.6944   -4.7535    0.6753 H         1 <0>         0.1323
     41 H12         1.7671   -7.0718   -0.1836 H         1 <0>         0.4148
     42 H13         2.3529   -9.3343   -0.1459 H         1 <0>         0.4098
     43 H14         2.4579  -11.6912    0.8003 H         1 <0>         0.1258
     44 H15         1.8756  -14.0361    0.3317 H         1 <0>         0.1261
     45 H16         0.2324  -14.5719   -1.4204 H         1 <0>         0.1231
     46 H17        -0.8389  -12.7653   -2.7032 H         1 <0>         0.1267
     47 H18        -0.2705  -10.4168   -2.2358 H         1 <0>         0.1360
     48 O4         -4.0187   -0.4441   -2.5346 O.co2     1 <0>        -0.7428
@<TRIPOS>BOND
     1    1    2 1
     2    1   30 1
     3    1   31 1
     4    1   32 1
     5    2    7 ar
     6    2    3 ar
     7    3    4 ar
     8    3   33 1
     9    4    5 ar
    10    4   34 1
    11    5    6 ar
    12    5    8 1
    13    6    7 ar
    14    6   35 1
    15    7   36 1
    16    8   12 1
    17    8    9 2
    18    9   10 1
    19   10   11 2
    20   11   12 1
    21   11   16 1
    22   12   13 1
    23   13   14 1
    24   13   37 1
    25   13   38 1
    26   14   15 2
    27   14   48 1
    28   16   17 1
    29   17   18 1
    30   17   39 1
    31   17   40 1
    32   18   19 2
    33   18   20 am
    34   20   21 am
    35   20   41 1
    36   21   22 2
    37   21   23 am
    38   23   24 1
    39   23   42 1
    40   24   29 ar
    41   24   25 ar
    42   25   26 ar
    43   25   43 1
    44   26   27 ar
    45   26   44 1
    46   27   28 ar
    47   27   45 1
    48   28   29 ar
    49   28   46 1
    50   29   47 1
@<TRIPOS>MOLECULE
ZINC13346516
   40    41     0     0     0
SMALL
USER_CHARGES
3-[[[2-[3-(trifluoromethyl)phenoxy]acetyl]amino]sulfamoyl]benzoic acid
@<TRIPOS>ATOM
      1 C1         -1.0528    4.8542   -2.5358 C.ar      1 <0>        -0.1545
      2 C2         -1.5783    4.3557   -3.7100 C.ar      1 <0>        -0.0179
      3 C3         -2.0744    3.0514   -3.7506 C.ar      1 <0>        -0.1296
      4 C4         -2.0350    2.2600   -2.6007 C.ar      1 <0>         0.0170
      5 C5         -1.5070    2.7710   -1.4335 C.ar      1 <0>        -0.6967
      6 C6         -1.0221    4.0667   -1.3987 C.ar      1 <0>        -0.0355
      7 S1         -1.4563    1.7742    0.0186 S.o2      1 <0>         2.6963
      8 O1         -2.4724    0.7917   -0.1276 O.2       1 <0>        -0.9340
      9 O2         -1.4135    2.6674    1.1230 O.2       1 <0>        -0.9463
     10 N1         -0.0111    0.9658    0.0074 N.pl3     1 <0>        -0.9015
     11 N2          1.1926    1.6828   -0.0003 N.am      1 <0>        -0.5037
     12 C7          2.1232    1.4473    0.9457 C.2       1 <0>         0.5191
     13 O3          1.9187    0.6148    1.8036 O.2       1 <0>        -0.4943
     14 C8          3.4179    2.2185    0.9375 C.3       1 <0>         0.0464
     15 O4          4.2331    1.7924    2.0311 O.3       1 <0>        -0.2827
     16 C9          5.4442    2.3934    2.1687 C.ar      1 <0>         0.1324
     17 C10         5.8423    3.3691    1.2661 C.ar      1 <0>        -0.1785
     18 C11         7.0716    3.9821    1.4111 C.ar      1 <0>        -0.0766
     19 C12         7.9096    3.6167    2.4487 C.ar      1 <0>        -0.1088
     20 C13         7.5176    2.6408    3.3459 C.ar      1 <0>        -0.1438
     21 C14         6.2868    2.0283    3.2083 C.ar      1 <0>        -0.0995
     22 C15         8.4338    2.2443    4.4749 C.3       1 <0>         0.5107
     23 F1          9.2628    1.1977    4.0571 F         1 <0>        -0.1743
     24 F2          9.2187    3.3414    4.8457 F         1 <0>        -0.1751
     25 F3          7.6703    1.8257    5.5699 F         1 <0>        -0.1739
     26 C16        -2.6389    2.5110   -5.0042 C.2       1 <0>         0.4879
     27 O5         -3.0702    1.3759   -5.0364 O.co2     1 <0>        -0.6219
     28 H1         -0.6690    5.8632   -2.5028 H         1 <0>         0.1304
     29 H2         -1.6060    4.9732   -4.5956 H         1 <0>         0.1414
     30 H3         -2.4168    1.2500   -2.6254 H         1 <0>         0.1469
     31 H4         -0.6137    4.4634   -0.4810 H         1 <0>         0.1346
     32 H5          0.0021   -0.0041    0.0020 H         1 <0>         0.4300
     33 H6          1.3561    2.3486   -0.6864 H         1 <0>         0.4236
     34 H7          3.9434    2.0363    0.0001 H         1 <0>         0.1053
     35 H8          3.2071    3.2835    1.0348 H         1 <0>         0.1065
     36 H9          5.1901    3.6516    0.4530 H         1 <0>         0.1413
     37 H10         7.3802    4.7445    0.7112 H         1 <0>         0.1410
     38 H11         8.8721    4.0943    2.5580 H         1 <0>         0.1387
     39 H12         5.9809    1.2662    3.9097 H         1 <0>         0.1473
     40 O6         -2.6754    3.2771   -6.1117 O.co2     1 <0>        -0.7480
@<TRIPOS>BOND
     1    1    6 ar
     2    1    2 ar
     3    1   28 1
     4    2    3 ar
     5    2   29 1
     6    3    4 ar
     7    3   26 1
     8    4    5 ar
     9    4   30 1
    10    5    6 ar
    11    5    7 1
    12    6   31 1
    13    7    8 2
    14    7    9 2
    15    7   10 1
    16   10   11 1
    17   10   32 1
    18   11   12 am
    19   11   33 1
    20   12   13 2
    21   12   14 1
    22   14   15 1
    23   14   34 1
    24   14   35 1
    25   15   16 1
    26   16   21 ar
    27   16   17 ar
    28   17   18 ar
    29   17   36 1
    30   18   19 ar
    31   18   37 1
    32   19   20 ar
    33   19   38 1
    34   20   21 ar
    35   20   22 1
    36   21   39 1
    37   22   23 1
    38   22   24 1
    39   22   25 1
    40   26   27 2
    41   26   40 1
@<TRIPOS>MOLECULE
ZINC12402842
   66    69     0     0     0
SMALL
USER_CHARGES

@<TRIPOS>ATOM
      1 C1          0.4167    1.9719   -0.1599 C.3       1 <0>        -0.1448
      2 C2          0.2566    0.4546   -0.0536 C.3       1 <0>        -0.0220
      3 C3         -1.2407    0.1216    0.0365 C.3       1 <0>        -0.1095
      4 C4         -1.8646    0.8313    1.2382 C.3       1 <0>        -0.1669
      5 C5         -1.0766    0.5090    2.4825 C.2       1 <0>         0.3905
      6 O1         -1.5838    0.6601    3.5763 O.2       1 <0>        -0.4720
      7 C6          0.2959    0.0218    2.3791 C.2       1 <0>        -0.2577
      8 C7          0.9258   -0.0250    1.2093 C.2       1 <0>         0.0051
      9 C8          2.3256   -0.5733    1.1245 C.3       1 <0>        -0.0937
     10 C9          2.3406   -1.7694    0.1790 C.3       1 <0>        -0.1012
     11 C10         1.3398   -1.6537   -0.9451 C.3       1 <0>        -0.0515
     12 H1          0.4292   -2.2141   -0.5942 H         1 <0>         0.0608
     13 C11         0.8463   -0.2489   -1.2640 C.3       1 <0>        -0.0545
     14 H2         -0.0398   -0.4197   -1.9294 H         1 <0>         0.0740
     15 C12         1.7838    0.5838   -2.1039 C.3       1 <0>         0.1271
     16 H3          1.2476    1.4849   -2.4562 H         1 <0>         0.0506
     17 C13         2.2166   -0.1529   -3.3856 C.3       1 <0>        -0.1412
     18 C14         2.7903   -1.5012   -3.0355 C.3       1 <0>        -0.0238
     19 C15         1.7716   -2.3213   -2.2229 C.3       1 <0>        -0.0747
     20 H4          0.8600   -2.4703   -2.8547 H         1 <0>         0.0800
     21 C16         2.4725   -3.6825   -2.1262 C.3       1 <0>        -0.1111
     22 C17         3.0466   -3.8630   -3.5617 C.3       1 <0>        -0.1470
     23 C18         3.0284   -2.4594   -4.2214 C.3       1 <0>         0.0940
     24 C19         4.3562   -2.1578   -4.8604 C.2       1 <0>         0.3392
     25 O2          5.3380   -2.7813   -4.5357 O.2       1 <0>        -0.4106
     26 C20         4.4612   -1.0774   -5.9058 C.3       1 <0>         0.0152
     27 O3          5.8135   -0.9816   -6.3575 O.3       1 <0>        -0.3412
     28 C21         6.0785   -0.0596   -7.2965 C.2       1 <0>         0.4597
     29 O4          5.1916    0.6427   -7.7207 O.2       1 <0>        -0.5107
     30 C22         7.4821    0.0994   -7.8214 C.3       1 <0>        -0.0850
     31 C23         7.5102    1.2093   -8.8741 C.3       1 <0>        -0.1719
     32 C24         8.9139    1.3684   -9.3990 C.2       1 <0>         0.4928
     33 O5          9.8088    0.6596   -8.9709 O.co2     1 <0>        -0.6971
     34 O6          9.1545    2.2058  -10.2519 O.co2     1 <0>        -0.6983
     35 O7          1.9670   -2.3513   -5.1639 O.3       1 <0>        -0.5349
     36 C25         4.1453   -1.3388   -2.3488 C.3       1 <0>        -0.1664
     37 O8          2.9214    1.0141   -1.3669 O.3       1 <0>        -0.5532
     38 H5          1.4767    2.2243   -0.1882 H         1 <0>         0.0805
     39 H6         -0.0654    2.3250   -1.0715 H         1 <0>         0.0614
     40 H7         -0.0472    2.4476    0.7041 H         1 <0>         0.0549
     41 H8         -1.7350    0.4460   -0.8798 H         1 <0>         0.0794
     42 H9         -1.3573   -0.9578    0.1482 H         1 <0>         0.0710
     43 H10        -1.9028    1.9052    1.0833 H         1 <0>         0.1042
     44 H11        -2.8914    0.4670    1.3716 H         1 <0>         0.0928
     45 H12         0.8125   -0.3069    3.2698 H         1 <0>         0.1285
     46 H13         3.0104    0.1908    0.7679 H         1 <0>         0.1027
     47 H14         2.6443   -0.9033    2.1170 H         1 <0>         0.0678
     48 H15         3.3449   -1.9616   -0.1537 H         1 <0>         0.0794
     49 H16         2.0504   -2.6510    0.7864 H         1 <0>         0.0490
     50 H17         1.3485   -0.2744   -4.0402 H         1 <0>         0.0865
     51 H18         2.9671    0.4469   -3.9092 H         1 <0>         0.0681
     52 H19         3.2610   -3.6826   -1.3818 H         1 <0>         0.0756
     53 H20         1.7447   -4.4688   -1.9114 H         1 <0>         0.0678
     54 H21         4.0663   -4.2411   -3.5117 H         1 <0>         0.0898
     55 H22         2.4179   -4.5484   -4.1292 H         1 <0>         0.0771
     56 H23         3.8134   -1.3221   -6.7476 H         1 <0>         0.0997
     57 H24         4.1535   -0.1244   -5.4755 H         1 <0>         0.0985
     58 H25         8.1498    0.3604   -7.0003 H         1 <0>         0.1066
     59 H26         7.8097   -0.8374   -8.2723 H         1 <0>         0.1065
     60 H27         6.8426    0.9483   -9.6952 H         1 <0>         0.0664
     61 H28         7.1827    2.1461   -8.4232 H         1 <0>         0.0663
     62 H29         2.0625   -2.9311   -5.9319 H         1 <0>         0.3813
     63 H30         4.0085   -0.8429   -1.3878 H         1 <0>         0.0969
     64 H31         4.5926   -2.3202   -2.1908 H         1 <0>         0.0632
     65 H32         4.8017   -0.7374   -2.9777 H         1 <0>         0.0527
     66 H33         3.5418    1.5507   -1.8789 H         1 <0>         0.3772
@<TRIPOS>BOND
     1    1    2 1
     2    1   38 1
     3    1   39 1
     4    1   40 1
     5    2    8 1
     6    2   13 1
     7    2    3 1
     8    3    4 1
     9    3   41 1
    10    3   42 1
    11    4    5 1
    12    4   43 1
    13    4   44 1
    14    5    6 2
    15    5    7 1
    16    7    8 2
    17    7   45 1
    18    8    9 1
    19    9   10 1
    20    9   46 1
    21    9   47 1
    22   10   11 1
    23   10   48 1
    24   10   49 1
    25   11   12 1
    26   11   19 1
    27   11   13 1
    28   13   14 1
    29   13   15 1
    30   15   16 1
    31   15   17 1
    32   15   37 1
    33   17   18 1
    34   17   50 1
    35   17   51 1
    36   18   23 1
    37   18   19 1
    38   18   36 1
    39   19   20 1
    40   19   21 1
    41   21   22 1
    42   21   52 1
    43   21   53 1
    44   22   23 1
    45   22   54 1
    46   22   55 1
    47   23   24 1
    48   23   35 1
    49   24   25 2
    50   24   26 1
    51   26   27 1
    52   26   56 1
    53   26   57 1
    54   27   28 1
    55   28   29 2
    56   28   30 1
    57   30   31 1
    58   30   58 1
    59   30   59 1
    60   31   32 1
    61   31   60 1
    62   31   61 1
    63   32   33 2
    64   32   34 1
    65   35   62 1
    66   36   63 1
    67   36   64 1
    68   36   65 1
    69   37   66 1
@<TRIPOS>MOLECULE
ZINC45645094
   41    43     0     0     0
SMALL
USER_CHARGES

@<TRIPOS>ATOM
      1 C1         -0.0167    1.3784    0.0096 C.ar      1 <0>        -0.1572
      2 C2          1.1698    2.0883    0.0021 C.ar      1 <0>        -0.0799
      3 C3          2.3773    1.4175   -0.0134 C.ar      1 <0>        -0.1486
      4 C4          2.3989    0.0304   -0.0210 C.ar      1 <0>         0.1294
      5 C5          1.2070   -0.6796   -0.0130 C.ar      1 <0>        -0.2094
      6 C6          0.0021   -0.0041    0.0020 C.ar      1 <0>        -0.0795
      7 O1          3.5855   -0.6319   -0.0368 O.3       1 <0>        -0.3087
      8 C7          3.5315   -2.0598   -0.0438 C.3       1 <0>         0.1378
      9 C8          4.9322   -2.6155   -0.0612 C.2       1 <0>         0.0143
     10 C9          5.6729   -2.9165    1.0281 C.2       1 <0>        -0.1840
     11 C10         6.9061   -3.4036    0.5674 C.2       1 <0>        -0.1105
     12 C11         6.8546   -3.3748   -0.7967 C.2       1 <0>        -0.0576
     13 O2          5.6457   -2.8977   -1.1589 O.3       1 <0>        -0.1526
     14 C12         7.9243   -3.7934   -1.7085 C.2       1 <0>         0.6111
     15 O3          8.9755   -4.2131   -1.2613 O.2       1 <0>        -0.4975
     16 N1          7.7432   -3.7133   -3.0416 N.am      1 <0>        -0.4965
     17 N2          8.7651   -4.1133   -3.9127 N.pl3     1 <0>        -0.9010
     18 S1          8.4619   -5.2496   -5.0784 S.o2      1 <0>         2.7384
     19 O4          9.6330   -5.3327   -5.8790 O.2       1 <0>        -0.9306
     20 O5          7.9129   -6.3783   -4.4123 O.2       1 <0>        -0.9379
     21 C13         7.1889   -4.6073   -6.1135 C.2       1 <0>        -0.8305
     22 C14         7.3133   -3.8636   -7.2298 C.2       1 <0>         0.0633
     23 C15         6.0768   -3.4819   -7.8710 C.2       1 <0>        -0.2153
     24 C16         4.9093   -3.9156   -7.2774 C.2       1 <0>        -0.1576
     25 S2          5.4271   -4.7900   -5.9424 S.3       1 <0>         0.2179
     26 C17         6.0628   -2.6716   -9.0942 C.2       1 <0>         0.5347
     27 O6          7.1165   -2.3023   -9.5957 O.co2     1 <0>        -0.6823
     28 O7          4.9974   -2.3650   -9.6131 O.co2     1 <0>        -0.6845
     29 H1         -0.9596    1.9047    0.0260 H         1 <0>         0.1241
     30 H2          1.1525    3.1682    0.0080 H         1 <0>         0.1301
     31 H3          3.3038    1.9724   -0.0200 H         1 <0>         0.1317
     32 H4          1.2211   -1.7595   -0.0193 H         1 <0>         0.1293
     33 H5         -0.9260   -0.5563    0.0082 H         1 <0>         0.1259
     34 H6          3.0134   -2.4083    0.8497 H         1 <0>         0.1018
     35 H7          2.9951   -2.3988   -0.9302 H         1 <0>         0.0884
     36 H8          5.3727   -2.8032    2.0594 H         1 <0>         0.1634
     37 H9          7.7351   -3.7364    1.1743 H         1 <0>         0.1685
     38 H10         6.9054   -3.3788   -3.3981 H         1 <0>         0.4276
     39 H11         9.6502   -3.7245   -3.8328 H         1 <0>         0.4310
     40 H12         8.2767   -3.5709   -7.6204 H         1 <0>         0.1580
     41 H13         3.8944   -3.7364   -7.6004 H         1 <0>         0.1951
@<TRIPOS>BOND
     1    1    6 ar
     2    1    2 ar
     3    1   29 1
     4    2    3 ar
     5    2   30 1
     6    3    4 ar
     7    3   31 1
     8    4    5 ar
     9    4    7 1
    10    5    6 ar
    11    5   32 1
    12    6   33 1
    13    7    8 1
    14    8    9 1
    15    8   34 1
    16    8   35 1
    17    9   13 1
    18    9   10 2
    19   10   11 1
    20   10   36 1
    21   11   12 2
    22   11   37 1
    23   12   13 1
    24   12   14 1
    25   14   15 2
    26   14   16 am
    27   16   17 1
    28   16   38 1
    29   17   18 1
    30   17   39 1
    31   18   19 2
    32   18   20 2
    33   18   21 1
    34   21   25 1
    35   21   22 2
    36   22   23 1
    37   22   40 1
    38   23   24 2
    39   23   26 1
    40   24   25 1
    41   24   41 1
    42   26   27 2
    43   26   28 1
