@<TRIPOS>MOLECULE
3LPB-NVB
 56 59 0 0 0
SMALL
SF_CHARGES


@<TRIPOS>ATOM
1    S       111.9540   62.7430    7.2580  S.o2       1 SUBUNIT      1.3356
2    O       111.0950   62.6620    8.4100  O.2        1 SUBUNIT     -0.6068
3    O       112.3600   61.5320    6.6270  O.2        1 SUBUNIT     -0.6068
4    N       111.0970   63.6160    6.2030  N.pl3      1 SUBUNIT     -0.5962
5    C       110.2420   64.6810    6.6980  C.3        1 SUBUNIT      0.1287
6    C       113.3930   63.7400    7.5650  C.2        1 SUBUNIT     -0.0590
7    C       113.8950   63.8160    8.8730  C.2        1 SUBUNIT     -0.0946
8    C       115.0450   64.5560    9.1440  C.2        1 SUBUNIT     -0.0953
9    C       115.6780   65.2800    8.0970  C.2        1 SUBUNIT     -0.0002
10   C       115.1560   65.2220    6.7890  C.2        1 SUBUNIT     -0.0953
11   C       114.0210   64.4470    6.5110  C.2        1 SUBUNIT     -0.0946
12   C       116.9060   66.0850    8.3270  C.2        1 SUBUNIT     -0.0285
13   C       117.1090   66.8010    9.5090  C.2        1 SUBUNIT      0.2464
14   N       116.1580   66.8230   10.4690  N.2        1 SUBUNIT     -0.5082
15   C       116.3370   67.5720   11.5870  C.2        1 SUBUNIT      0.2513
16   C       117.5160   68.2960   11.7660  C.2        1 SUBUNIT      0.1568
17   N       118.4520   68.2780   10.7980  N.2        1 SUBUNIT     -0.4990
18   C       118.2740   67.5680    9.6660  C.2        1 SUBUNIT      0.2515
19   C       119.2750   67.5650    8.6720  C.2        1 SUBUNIT     -0.1196
20   C       119.1050   66.8130    7.4980  C.2        1 SUBUNIT     -0.0968
21   C       117.9130   66.0900    7.3280  C.2        1 SUBUNIT     -0.1031
22   C       115.2550   67.5140   12.6070  C.2        1 SUBUNIT     -0.0284
23   C       114.0510   66.9160   12.2940  C.2        1 SUBUNIT     -0.1231
24   C       113.0240   66.8340   13.2520  C.2        1 SUBUNIT      0.1363
25   C       113.2420   67.3150   14.5460  C.2        1 SUBUNIT      0.1218
26   C       114.4590   67.8790   14.8820  C.2        1 SUBUNIT      0.1363
27   C       115.4820   67.9800   13.9050  C.2        1 SUBUNIT     -0.1231
28   O       114.6180   68.3650   16.1720  O.3        1 SUBUNIT     -0.3909
29   C       115.4890   69.4610   16.4860  C.3        1 SUBUNIT      0.1507
30   O       112.2540   67.2060   15.5110  O.3        1 SUBUNIT     -0.3911
31   C       112.1690   65.9590   16.2470  C.3        1 SUBUNIT      0.1505
32   O       111.7790   66.2830   12.9670  O.3        1 SUBUNIT     -0.3909
33   C       111.3400   65.8480   11.6450  C.3        1 SUBUNIT      0.1507
34   H       111.1190   63.4653    5.2066  H          1 SUBUNIT      0.3231
35   H       109.4825   64.2885    7.3822  H          1 SUBUNIT      0.0326
36   H       109.7250   65.1841    5.8742  H          1 SUBUNIT      0.0326
37   H       110.8255   65.4334    7.2387  H          1 SUBUNIT      0.0326
38   H       113.3922   63.3017    9.6733  H          1 SUBUNIT      0.1060
39   H       115.4435   64.5727   10.1434  H          1 SUBUNIT      0.1059
40   H       115.6296   65.7751    5.9968  H          1 SUBUNIT      0.1059
41   H       113.6359   64.3934    5.5077  H          1 SUBUNIT      0.1060
42   H       117.6923   68.8676   12.6604  H          1 SUBUNIT      0.0796
43   H       120.1734   68.1405    8.8117  H          1 SUBUNIT      0.1081
44   H       119.8724   66.7912    6.7441  H          1 SUBUNIT      0.1089
45   H       117.7657   65.5307    6.4207  H          1 SUBUNIT      0.1098
46   H       113.9064   66.5124   11.3071  H          1 SUBUNIT      0.1112
47   H       116.4344   68.4137   14.1553  H          1 SUBUNIT      0.1112
48   H       116.5236   69.2314   16.2106  H          1 SUBUNIT      0.0399
49   H       115.4677   69.6846   17.5577  H          1 SUBUNIT      0.0399
50   H       115.1904   70.3664   15.9473  H          1 SUBUNIT      0.0399
51   H       111.9834   65.1169   15.5721  H          1 SUBUNIT      0.0404
52   H       111.3548   65.9898   16.9786  H          1 SUBUNIT      0.0404
53   H       113.0998   65.7582   16.7876  H          1 SUBUNIT      0.0404
54   H       111.3510   66.6808   10.9341  H          1 SUBUNIT      0.0399
55   H       110.3206   65.4500   11.6813  H          1 SUBUNIT      0.0399
56   H       111.9943   65.0623   11.2531  H          1 SUBUNIT      0.0399
@<TRIPOS>BOND
     1    1    2 2
     2    1    3 2
     3    1    4 1
     4    1    6 1
     5    4    5 1
     6    6    7 2
     7    6   11 1
     8    7    8 1
     9    8    9 2
    10    9   10 1
    11    9   12 1
    12   10   11 2
    13   12   13 2
    14   12   21 1
    15   13   14 1
    16   13   18 1
    17   14   15 2
    18   15   16 1
    19   15   22 1
    20   16   17 2
    21   17   18 1
    22   18   19 2
    23   19   20 1
    24   20   21 2
    25   22   23 2
    26   22   27 1
    27   23   24 1
    28   24   25 2
    29   24   32 1
    30   25   26 1
    31   25   30 1
    32   26   27 2
    33   26   28 1
    34   28   29 1
    35   30   31 1
    36   32   33 1
    37    4   34 1
    38    5   35 1
    39    5   36 1
    40    5   37 1
    41    7   38 1
    42    8   39 1
    43   10   40 1
    44   11   41 1
    45   16   42 1
    46   19   43 1
    47   20   44 1
    48   21   45 1
    49   23   46 1
    50   27   47 1
    51   29   48 1
    52   29   49 1
    53   29   50 1
    54   31   51 1
    55   31   52 1
    56   31   53 1
    57   33   54 1
    58   33   55 1
    59   33   56 1
