@<TRIPOS>MOLECULE
CHEMBL99718
   59    62     0     0     0
SMALL
USER_CHARGES

@<TRIPOS>ATOM
      1 C1         -0.0162    1.4453   -0.0783 C.ar      1 <0>        -0.0942
      2 C2          1.1692    2.1534   -0.0774 C.ar      1 <0>        -0.1092
      3 C3          2.3808    1.4781   -0.1049 C.ar      1 <0>         0.1043
      4 C4          2.4019    0.0912   -0.1338 C.ar      1 <0>        -0.1727
      5 C5          1.2169   -0.6176   -0.1351 C.ar      1 <0>        -0.0937
      6 C6          0.0045    0.0577   -0.1067 C.ar      1 <0>         0.1224
      7 N1         -1.2003   -0.6625   -0.1071 N.pl3     1 <0>        -0.4175
      8 C7         -1.3341   -2.0265   -0.1277 C.2       1 <0>        -0.0588
      9 C8         -2.6550   -2.2890   -0.1198 C.2       1 <0>        -0.0118
     10 N2         -3.3138   -1.1211   -0.0950 N.2       1 <0>        -0.4776
     11 C9         -2.4533   -0.1396   -0.0813 C.2       1 <0>         0.1904
     12 O1          3.5477    2.1756   -0.1040 O.3       1 <0>        -0.3260
     13 C10         4.7577    1.4159   -0.1333 C.3       1 <0>         0.0233
     14 C11         5.9568    2.3662   -0.1276 C.3       1 <0>         0.0011
     15 N3          5.9913    3.1034    1.1425 N.4       1 <0>        -0.5054
     16 C12         7.1426    4.0158    1.1479 C.3       1 <0>        -0.0409
     17 C13         7.1787    4.7837    2.4708 C.3       1 <0>         0.0865
     18 C14         8.3019    5.8216    2.4276 C.3       1 <0>         0.0326
     19 O2          8.2619    6.6164    3.6145 O.3       1 <0>        -0.2433
     20 N4          9.2992    7.6463    3.6762 N.3       1 <0>        -0.4862
     21 C15         9.1975    8.4220    4.9196 C.3       1 <0>         0.1434
     22 C16        10.5989    8.8135    5.3925 C.3       1 <0>        -0.1724
     23 C17        11.1591    8.0889    6.6180 C.3       1 <0>        -0.1802
     24 C18        10.7137    9.5484    6.7295 C.3       1 <0>        -0.1566
     25 C19         8.3731    9.6858    4.6663 C.3       1 <0>        -0.1362
     26 C20         7.2071    9.9706    5.6150 C.3       1 <0>        -0.1783
     27 C21         6.9325    9.5046    4.1838 C.3       1 <0>        -0.1629
     28 O3          7.4144    3.8711    3.5450 O.3       1 <0>        -0.5462
     29 H1         -0.9593    1.9710   -0.0523 H         1 <0>         0.1465
     30 H2          1.1532    3.2331   -0.0557 H         1 <0>         0.1458
     31 H3          3.3453   -0.4340   -0.1555 H         1 <0>         0.1380
     32 H4          1.2335   -1.6972   -0.1583 H         1 <0>         0.1402
     33 H5         -0.5339   -2.7515   -0.1472 H         1 <0>         0.1795
     34 H6         -3.1058   -3.2704   -0.1317 H         1 <0>         0.1790
     35 H7         -2.6971    0.9123   -0.0563 H         1 <0>         0.2109
     36 H8          4.8021    0.7696    0.7433 H         1 <0>         0.0895
     37 H9          4.7818    0.8058   -1.0361 H         1 <0>         0.1129
     38 H10         6.8762    1.7916   -0.2394 H         1 <0>         0.1531
     39 H11         5.8659    3.0708   -0.9543 H         1 <0>         0.1458
     40 H12         5.1402    3.6353    1.2459 H         1 <0>         0.4371
     41 H13         8.0621    3.4412    1.0362 H         1 <0>         0.1400
     42 H14         7.0518    4.7204    0.3212 H         1 <0>         0.1484
     43 H15         6.2243    5.2873    2.6247 H         1 <0>         0.1329
     44 H16         9.2640    5.3134    2.3629 H         1 <0>         0.0614
     45 H17         8.1705    6.4631    1.5562 H         1 <0>         0.0778
     46 H18        10.2178    7.2407    3.5772 H         1 <0>         0.3389
     47 H19         8.7110    7.8183    5.6857 H         1 <0>         0.0730
     48 H20        11.3011    9.0883    4.6053 H         1 <0>         0.1144
     49 H21        10.5292    7.3332    7.0874 H         1 <0>         0.0939
     50 H22        12.2300    7.8866    6.6373 H         1 <0>         0.0997
     51 H23        11.4916   10.3063    6.8221 H         1 <0>         0.1019
     52 H24         9.7909    9.7529    7.2723 H         1 <0>         0.1002
     53 H25         8.9292   10.5404    4.2810 H         1 <0>         0.1088
     54 H26         7.0273    9.2577    6.4197 H         1 <0>         0.0913
     55 H27         6.9960   11.0129    5.8542 H         1 <0>         0.0983
     56 H28         6.5407   10.2403    3.4814 H         1 <0>         0.0921
     57 H29         6.5721    8.4851    4.0469 H         1 <0>         0.0939
     58 H30         8.2481    3.3865    3.4735 H         1 <0>         0.3884
     59 H31         6.0755    2.4512    1.9078 H         1 <0>         0.4327
@<TRIPOS>BOND
     1    1    6 ar
     2    1    2 ar
     3    1   29 1
     4    2    3 ar
     5    2   30 1
     6    3    4 ar
     7    3   12 1
     8    4    5 ar
     9    4   31 1
    10    5    6 ar
    11    5   32 1
    12    6    7 1
    13    7   11 1
    14    7    8 1
    15    8    9 2
    16    8   33 1
    17    9   10 1
    18    9   34 1
    19   10   11 2
    20   11   35 1
    21   12   13 1
    22   13   14 1
    23   13   36 1
    24   13   37 1
    25   14   15 1
    26   14   38 1
    27   14   39 1
    28   15   16 1
    29   15   40 1
    30   15   59 1
    31   16   17 1
    32   16   41 1
    33   16   42 1
    34   17   18 1
    35   17   28 1
    36   17   43 1
    37   18   19 1
    38   18   44 1
    39   18   45 1
    40   19   20 1
    41   20   21 1
    42   20   46 1
    43   21   22 1
    44   21   25 1
    45   21   47 1
    46   22   24 1
    47   22   23 1
    48   22   48 1
    49   23   24 1
    50   23   49 1
    51   23   50 1
    52   24   51 1
    53   24   52 1
    54   25   27 1
    55   25   26 1
    56   25   53 1
    57   26   27 1
    58   26   54 1
    59   26   55 1
    60   27   56 1
    61   27   57 1
    62   28   58 1
@<TRIPOS>MOLECULE
CHEMBL99718__1
   58    61     0     0     0
SMALL
USER_CHARGES

@<TRIPOS>ATOM
      1 C1         -0.0150    1.4445   -0.0766 C.ar      1 <0>        -0.0909
      2 C2          1.1702    2.1530   -0.0759 C.ar      1 <0>        -0.1236
      3 C3          2.3820    1.4781   -0.1035 C.ar      1 <0>         0.1317
      4 C4          2.4035    0.0912   -0.1323 C.ar      1 <0>        -0.1814
      5 C5          1.2188   -0.6180   -0.1335 C.ar      1 <0>        -0.0888
      6 C6          0.0061    0.0569   -0.1049 C.ar      1 <0>         0.0931
      7 N1         -1.1985   -0.6637   -0.1051 N.pl3     1 <0>        -0.4070
      8 C7         -1.3319   -2.0278   -0.1256 C.2       1 <0>        -0.0566
      9 C8         -2.6527   -2.2907   -0.1175 C.2       1 <0>        -0.0212
     10 N2         -3.3118   -1.1230   -0.0927 N.2       1 <0>        -0.4851
     11 C9         -2.4516   -0.1412   -0.0791 C.2       1 <0>         0.1861
     12 O1          3.5486    2.1759   -0.1029 O.3       1 <0>        -0.3128
     13 C10         4.7588    1.4166   -0.1322 C.3       1 <0>         0.0574
     14 C11         5.9576    2.3672   -0.1268 C.3       1 <0>         0.0617
     15 N3          5.9922    3.1046    1.1433 N.3       1 <0>        -0.6792
     16 C12         7.1329    4.0292    1.1844 C.3       1 <0>         0.0308
     17 C13         7.1353    4.7772    2.5191 C.3       1 <0>         0.1166
     18 C14         8.2474    5.8279    2.5129 C.3       1 <0>         0.0304
     19 O2          8.1761    6.6041    3.7107 O.3       1 <0>        -0.2388
     20 N4          9.2005    7.6441    3.8076 N.3       1 <0>        -0.4987
     21 C15         9.0666    8.3997    5.0603 C.3       1 <0>         0.1429
     22 C16        10.4543    8.7992    5.5657 C.3       1 <0>        -0.1673
     23 C17        10.9992    8.0621    6.7907 C.3       1 <0>        -0.1808
     24 C18        10.5356    9.5148    6.9156 C.3       1 <0>        -0.1598
     25 C19         8.2331    9.6581    4.8102 C.3       1 <0>        -0.1340
     26 C20         7.0462    9.9158    5.7407 C.3       1 <0>        -0.1810
     27 C21         6.8040    9.4686    4.2977 C.3       1 <0>        -0.1622
     28 O3          7.3608    3.8511    3.5838 O.3       1 <0>        -0.5410
     29 H1         -0.9583    1.9699   -0.0505 H         1 <0>         0.1399
     30 H2          1.1538    3.2326   -0.0542 H         1 <0>         0.1430
     31 H3          3.3471   -0.4338   -0.1542 H         1 <0>         0.1388
     32 H4          1.2356   -1.6976   -0.1566 H         1 <0>         0.1343
     33 H5         -0.5314   -2.7525   -0.1452 H         1 <0>         0.1770
     34 H6         -3.1032   -3.2722   -0.1293 H         1 <0>         0.1751
     35 H7         -2.6957    0.9106   -0.0542 H         1 <0>         0.2085
     36 H8          4.8036    0.7704    0.7444 H         1 <0>         0.0767
     37 H9          4.7831    0.8064   -1.0351 H         1 <0>         0.0705
     38 H10         6.8773    1.7929   -0.2386 H         1 <0>         0.0946
     39 H11         5.8664    3.0717   -0.9535 H         1 <0>         0.0437
     40 H12         5.1241    3.5940    1.3010 H         1 <0>         0.3521
     41 H13         8.0607    3.4664    1.0817 H         1 <0>         0.0793
     42 H14         7.0498    4.7452    0.3668 H         1 <0>         0.0445
     43 H15         6.1726    5.2680    2.6623 H         1 <0>         0.1058
     44 H16         9.2162    5.3312    2.4590 H         1 <0>         0.0508
     45 H17         8.1254    6.4811    1.6489 H         1 <0>         0.0659
     46 H18        10.1252    7.2501    3.7201 H         1 <0>         0.3349
     47 H19         8.5724    7.7792    5.8078 H         1 <0>         0.0708
     48 H20        11.1681    9.0935    4.7963 H         1 <0>         0.1125
     49 H21        10.3691    7.2926    7.2366 H         1 <0>         0.0947
     50 H22        12.0718    7.8713    6.8274 H         1 <0>         0.0975
     51 H23        11.3030   10.2797    7.0344 H         1 <0>         0.0985
     52 H24         9.6003    9.7010    7.4436 H         1 <0>         0.0989
     53 H25         8.7868   10.5245    4.4485 H         1 <0>         0.1055
     54 H26         6.8591    9.1888    6.5310 H         1 <0>         0.0905
     55 H27         6.8189   10.9519    5.9914 H         1 <0>         0.0945
     56 H28         6.4174   10.2106    3.5991 H         1 <0>         0.0904
     57 H29         6.4576    8.4475    4.1386 H         1 <0>         0.0988
     58 H30         8.2011    3.3767    3.5210 H         1 <0>         0.3715
@<TRIPOS>BOND
     1    1    6 ar
     2    1    2 ar
     3    1   29 1
     4    2    3 ar
     5    2   30 1
     6    3    4 ar
     7    3   12 1
     8    4    5 ar
     9    4   31 1
    10    5    6 ar
    11    5   32 1
    12    6    7 1
    13    7   11 1
    14    7    8 1
    15    8    9 2
    16    8   33 1
    17    9   10 1
    18    9   34 1
    19   10   11 2
    20   11   35 1
    21   12   13 1
    22   13   14 1
    23   13   36 1
    24   13   37 1
    25   14   15 1
    26   14   38 1
    27   14   39 1
    28   15   16 1
    29   15   40 1
    30   16   17 1
    31   16   41 1
    32   16   42 1
    33   17   18 1
    34   17   28 1
    35   17   43 1
    36   18   19 1
    37   18   44 1
    38   18   45 1
    39   19   20 1
    40   20   21 1
    41   20   46 1
    42   21   22 1
    43   21   25 1
    44   21   47 1
    45   22   24 1
    46   22   23 1
    47   22   48 1
    48   23   24 1
    49   23   49 1
    50   23   50 1
    51   24   51 1
    52   24   52 1
    53   25   27 1
    54   25   26 1
    55   25   53 1
    56   26   27 1
    57   26   54 1
    58   26   55 1
    59   27   56 1
    60   27   57 1
    61   28   58 1
@<TRIPOS>MOLECULE
CHEMBL99718__2
   59    62     0     0     0
SMALL
USER_CHARGES

@<TRIPOS>ATOM
      1 C1         -0.0167    1.3839    0.0097 C.ar      1 <0>        -0.0943
      2 C2          1.1696    2.0903    0.0021 C.ar      1 <0>        -0.1090
      3 C3          2.3803    1.4130   -0.0131 C.ar      1 <0>         0.1045
      4 C4          2.3996    0.0259   -0.0212 C.ar      1 <0>        -0.1728
      5 C5          1.2137   -0.6813   -0.0141 C.ar      1 <0>        -0.0937
      6 C6          0.0021   -0.0041    0.0020 C.ar      1 <0>         0.1225
      7 N1         -1.2037   -0.7225    0.0101 N.pl3     1 <0>        -0.4175
      8 C7         -1.3394   -2.0865    0.0097 C.2       1 <0>        -0.0587
      9 C8         -2.6606   -2.3471    0.0191 C.2       1 <0>        -0.0118
     10 N2         -3.3178   -1.1780    0.0252 N.2       1 <0>        -0.4776
     11 C9         -2.4560   -0.1976    0.0259 C.2       1 <0>         0.1904
     12 O1          3.5482    2.1089   -0.0205 O.3       1 <0>        -0.3258
     13 C10         4.7572    1.3472   -0.0361 C.3       1 <0>         0.0231
     14 C11         5.9576    2.2958   -0.0425 C.3       1 <0>         0.0010
     15 N3          5.9909    3.0519    1.2165 N.4       1 <0>        -0.5050
     16 C12         7.1434    3.9627    1.2104 C.3       1 <0>        -0.0415
     17 C13         7.1781    4.7502    2.5218 C.3       1 <0>         0.0869
     18 C14         8.3785    5.6988    2.5154 C.3       1 <0>         0.0321
     19 O2          8.4786    6.3489    3.7840 O.3       1 <0>        -0.2418
     20 N4          9.5994    7.2835    3.8869 N.3       1 <0>        -0.4858
     21 C15         9.6402    7.9127    5.2137 C.3       1 <0>         0.1434
     22 C16        11.0887    8.2475    5.5751 C.3       1 <0>        -0.1476
     23 C17        12.1463    8.0796    4.4824 C.3       1 <0>        -0.1695
     24 C18        12.0850    7.0886    5.6465 C.3       1 <0>        -0.1667
     25 C19         8.8092    9.1973    5.1948 C.3       1 <0>        -0.1932
     26 C20         7.7543    9.3725    6.2890 C.3       1 <0>        -0.1654
     27 C21         7.3234    9.0725    4.8519 C.3       1 <0>        -0.1770
     28 O3          5.9734    5.5072    2.6548 O.3       1 <0>        -0.5455
     29 H1         -0.9592    1.9111    0.0260 H         1 <0>         0.1464
     30 H2          1.1551    3.1702    0.0077 H         1 <0>         0.1456
     31 H3          3.3423   -0.5010   -0.0334 H         1 <0>         0.1381
     32 H4          1.2287   -1.7612   -0.0211 H         1 <0>         0.1402
     33 H5         -0.5401   -2.8128    0.0025 H         1 <0>         0.1795
     34 H6         -3.1128   -3.3279    0.0211 H         1 <0>         0.1791
     35 H7         -2.6984    0.8548    0.0347 H         1 <0>         0.2109
     36 H8          4.7991    0.7140    0.8501 H         1 <0>         0.0897
     37 H9          4.7821    0.7236   -0.9298 H         1 <0>         0.1130
     38 H10         6.8765    1.7184   -0.1439 H         1 <0>         0.1541
     39 H11         5.8692    2.9881   -0.8798 H         1 <0>         0.1446
     40 H12         5.1403    3.5865    1.3105 H         1 <0>         0.4395
     41 H13         8.0623    3.3853    1.1090 H         1 <0>         0.1480
     42 H14         7.0550    4.6550    0.3731 H         1 <0>         0.1398
     43 H15         7.2665    4.0579    3.3591 H         1 <0>         0.1331
     44 H16         9.2893    5.1310    2.3252 H         1 <0>         0.0764
     45 H17         8.2465    6.4466    1.7334 H         1 <0>         0.0616
     46 H18         9.5578    7.9797    3.1577 H         1 <0>         0.3407
     47 H19         9.2304    7.2258    5.9543 H         1 <0>         0.0970
     48 H20        11.2195    9.0679    6.2808 H         1 <0>         0.1174
     49 H21        11.8102    7.7305    3.5061 H         1 <0>         0.1012
     50 H22        12.9732    8.7896    4.4690 H         1 <0>         0.0926
     51 H23        12.8715    7.1467    6.3989 H         1 <0>         0.0948
     52 H24        11.7085    6.0876    5.4360 H         1 <0>         0.0960
     53 H25         9.3317   10.0901    4.8514 H         1 <0>         0.1102
     54 H26         7.6523    8.5726    7.0224 H         1 <0>         0.0967
     55 H27         7.5827   10.3808    6.6658 H         1 <0>         0.0983
     56 H28         6.8682    9.8834    4.2833 H         1 <0>         0.0935
     57 H29         6.9378    8.0753    4.6399 H         1 <0>         0.0996
     58 H30         5.8292    6.1452    1.9425 H         1 <0>         0.3886
     59 H31         6.0727    2.4111    1.9916 H         1 <0>         0.4302
@<TRIPOS>BOND
     1    1    6 ar
     2    1    2 ar
     3    1   29 1
     4    2    3 ar
     5    2   30 1
     6    3    4 ar
     7    3   12 1
     8    4    5 ar
     9    4   31 1
    10    5    6 ar
    11    5   32 1
    12    6    7 1
    13    7   11 1
    14    7    8 1
    15    8    9 2
    16    8   33 1
    17    9   10 1
    18    9   34 1
    19   10   11 2
    20   11   35 1
    21   12   13 1
    22   13   14 1
    23   13   36 1
    24   13   37 1
    25   14   15 1
    26   14   38 1
    27   14   39 1
    28   15   16 1
    29   15   40 1
    30   15   59 1
    31   16   17 1
    32   16   41 1
    33   16   42 1
    34   17   18 1
    35   17   28 1
    36   17   43 1
    37   18   19 1
    38   18   44 1
    39   18   45 1
    40   19   20 1
    41   20   21 1
    42   20   46 1
    43   21   22 1
    44   21   25 1
    45   21   47 1
    46   22   24 1
    47   22   23 1
    48   22   48 1
    49   23   24 1
    50   23   49 1
    51   23   50 1
    52   24   51 1
    53   24   52 1
    54   25   27 1
    55   25   26 1
    56   25   53 1
    57   26   27 1
    58   26   54 1
    59   26   55 1
    60   27   56 1
    61   27   57 1
    62   28   58 1
@<TRIPOS>MOLECULE
CHEMBL99718__3
   58    61     0     0     0
SMALL
USER_CHARGES

@<TRIPOS>ATOM
      1 C1         -0.0167    1.3839    0.0097 C.ar      1 <0>        -0.0910
      2 C2          1.1696    2.0903    0.0021 C.ar      1 <0>        -0.1232
      3 C3          2.3803    1.4130   -0.0131 C.ar      1 <0>         0.1317
      4 C4          2.3996    0.0259   -0.0212 C.ar      1 <0>        -0.1816
      5 C5          1.2137   -0.6813   -0.0141 C.ar      1 <0>        -0.0889
      6 C6          0.0021   -0.0041    0.0020 C.ar      1 <0>         0.0932
      7 N1         -1.2037   -0.7225    0.0101 N.pl3     1 <0>        -0.4070
      8 C7         -1.3394   -2.0865    0.0097 C.2       1 <0>        -0.0566
      9 C8         -2.6606   -2.3471    0.0191 C.2       1 <0>        -0.0213
     10 N2         -3.3178   -1.1780    0.0252 N.2       1 <0>        -0.4851
     11 C9         -2.4560   -0.1976    0.0259 C.2       1 <0>         0.1861
     12 O1          3.5482    2.1089   -0.0205 O.3       1 <0>        -0.3124
     13 C10         4.7572    1.3472   -0.0361 C.3       1 <0>         0.0570
     14 C11         5.9576    2.2958   -0.0425 C.3       1 <0>         0.0617
     15 N3          5.9909    3.0519    1.2165 N.3       1 <0>        -0.6834
     16 C12         7.1331    3.9752    1.2461 C.3       1 <0>         0.0316
     17 C13         7.1341    4.7430    2.5695 C.3       1 <0>         0.1144
     18 C14         8.3237    5.7046    2.6003 C.3       1 <0>         0.0309
     19 O2          8.3925    6.3364    3.8802 O.3       1 <0>        -0.2372
     20 N4          9.5007    7.2815    4.0185 N.3       1 <0>        -0.4979
     21 C15         9.5092    7.8908    5.3552 C.3       1 <0>         0.1427
     22 C16        10.9468    8.2359    5.7492 C.3       1 <0>        -0.1454
     23 C17        12.0268    8.0960    4.6745 C.3       1 <0>        -0.1705
     24 C18        11.9545    7.0869    5.8222 C.3       1 <0>        -0.1680
     25 C19         8.6645    9.1664    5.3396 C.3       1 <0>        -0.1906
     26 C20         7.5872    9.3134    6.4160 C.3       1 <0>        -0.1685
     27 C21         7.1869    9.0307    4.9666 C.3       1 <0>        -0.1758
     28 O3          5.9187    5.4848    2.6908 O.3       1 <0>        -0.5493
     29 H1         -0.9592    1.9111    0.0260 H         1 <0>         0.1398
     30 H2          1.1551    3.1702    0.0077 H         1 <0>         0.1430
     31 H3          3.3423   -0.5010   -0.0334 H         1 <0>         0.1388
     32 H4          1.2287   -1.7612   -0.0211 H         1 <0>         0.1343
     33 H5         -0.5401   -2.8128    0.0025 H         1 <0>         0.1771
     34 H6         -3.1128   -3.3279    0.0211 H         1 <0>         0.1751
     35 H7         -2.6984    0.8548    0.0347 H         1 <0>         0.2084
     36 H8          4.7991    0.7140    0.8501 H         1 <0>         0.0765
     37 H9          4.7821    0.7236   -0.9298 H         1 <0>         0.0708
     38 H10         6.8765    1.7184   -0.1439 H         1 <0>         0.0952
     39 H11         5.8692    2.9881   -0.8798 H         1 <0>         0.0431
     40 H12         5.1233    3.5452    1.3652 H         1 <0>         0.3577
     41 H13         8.0601    3.4094    1.1536 H         1 <0>         0.0860
     42 H14         7.0528    4.6791    0.4178 H         1 <0>         0.0362
     43 H15         7.2143    4.0391    3.3979 H         1 <0>         0.1162
     44 H16         9.2442    5.1497    2.4191 H         1 <0>         0.0666
     45 H17         8.1983    6.4627    1.8272 H         1 <0>         0.0492
     46 H18         9.4651    7.9882    3.2992 H         1 <0>         0.3363
     47 H19         9.0932    7.1883    6.0774 H         1 <0>         0.0955
     48 H20        11.0551    9.0468    6.4695 H         1 <0>         0.1133
     49 H21        11.7131    7.7582    3.6868 H         1 <0>         0.1032
     50 H22        12.8458    8.8152    4.6875 H         1 <0>         0.0890
     51 H23        12.7259    7.1421    6.5903 H         1 <0>         0.0916
     52 H24        11.5932    6.0851    5.5895 H         1 <0>         0.0980
     53 H25         9.1834   10.0700    5.0197 H         1 <0>         0.1067
     54 H26         7.4802    8.5014    7.1352 H         1 <0>         0.0958
     55 H27         7.3972   10.3140    6.8045 H         1 <0>         0.0945
     56 H28         6.7336    9.8452    4.4016 H         1 <0>         0.0917
     57 H29         6.8166    8.0326    4.7323 H         1 <0>         0.1048
     58 H30         5.7809    6.1319    1.9856 H         1 <0>         0.3702
@<TRIPOS>BOND
     1    1    6 ar
     2    1    2 ar
     3    1   29 1
     4    2    3 ar
     5    2   30 1
     6    3    4 ar
     7    3   12 1
     8    4    5 ar
     9    4   31 1
    10    5    6 ar
    11    5   32 1
    12    6    7 1
    13    7   11 1
    14    7    8 1
    15    8    9 2
    16    8   33 1
    17    9   10 1
    18    9   34 1
    19   10   11 2
    20   11   35 1
    21   12   13 1
    22   13   14 1
    23   13   36 1
    24   13   37 1
    25   14   15 1
    26   14   38 1
    27   14   39 1
    28   15   16 1
    29   15   40 1
    30   16   17 1
    31   16   41 1
    32   16   42 1
    33   17   18 1
    34   17   28 1
    35   17   43 1
    36   18   19 1
    37   18   44 1
    38   18   45 1
    39   19   20 1
    40   20   21 1
    41   20   46 1
    42   21   22 1
    43   21   25 1
    44   21   47 1
    45   22   24 1
    46   22   23 1
    47   22   48 1
    48   23   24 1
    49   23   49 1
    50   23   50 1
    51   24   51 1
    52   24   52 1
    53   25   27 1
    54   25   26 1
    55   25   53 1
    56   26   27 1
    57   26   54 1
    58   26   55 1
    59   27   56 1
    60   27   57 1
    61   28   58 1
@<TRIPOS>MOLECULE
CHEMBL307647
   37    39     0     0     0
SMALL
USER_CHARGES

@<TRIPOS>ATOM
      1 C1         -0.0173    1.4248    0.0099 C.3       1 <0>         0.0314
      2 O1          0.0021   -0.0041    0.0020 O.3       1 <0>        -0.3194
      3 C2         -1.2004   -0.6375    0.0101 C.ar      1 <0>         0.1782
      4 C3         -1.8066   -0.9629    1.2152 C.ar      1 <0>        -0.1200
      5 C4         -3.0293   -1.6071    1.2205 C.ar      1 <0>        -0.0401
      6 C5         -3.6486   -1.9273    0.0266 C.ar      1 <0>        -0.1265
      7 C6         -3.0467   -1.6048   -1.1756 C.ar      1 <0>        -0.0752
      8 C7         -1.8269   -0.9550   -1.1867 C.ar      1 <0>        -0.1221
      9 I1         -0.9203   -0.4577   -3.0087 I         1 <0>         0.0094
     10 C8         -4.9819   -2.6297    0.0355 C.3       1 <0>        -0.0955
     11 C9         -6.1054   -1.5912    0.0449 C.3       1 <0>         0.1603
     12 C10        -7.4235   -2.2779    0.1460 C.2       1 <0>        -0.3712
     13 C11        -8.5420   -2.0090   -0.5777 C.2       1 <0>         0.1596
     14 N1         -9.5903   -2.7742   -0.2961 N.2       1 <0>        -0.5951
     15 C12        -9.5341   -3.7163    0.6217 C.2       1 <0>         0.3500
     16 S1         -7.9500   -3.6069    1.1881 S.3       1 <0>         0.1894
     17 N2        -10.5346   -4.5870    1.0245 N.pl3     1 <0>        -0.7839
     18 C13        -8.5125   -0.8919   -1.6125 C.3       1 <0>        -0.0702
     19 C14        -7.2988   -0.0056   -1.3141 C.3       1 <0>        -0.0021
     20 N3         -6.0816   -0.8206   -1.2138 N.4       1 <0>        -0.5075
     21 I2         -0.8687   -0.4786    3.0249 I         1 <0>         0.0117
     22 H1          1.0053    1.8021    0.0021 H         1 <0>         0.1131
     23 H2         -0.5445    1.7859   -0.8732 H         1 <0>         0.0541
     24 H3         -0.5275    1.7763    0.9067 H         1 <0>         0.0551
     25 H4         -3.5014   -1.8608    2.1582 H         1 <0>         0.1478
     26 H5         -3.5324   -1.8564   -2.1068 H         1 <0>         0.1394
     27 H6         -5.0703   -3.2527   -0.8545 H         1 <0>         0.1092
     28 H7         -5.0573   -3.2547    0.9254 H         1 <0>         0.1253
     29 H8         -5.9755   -0.9169    0.8914 H         1 <0>         0.1496
     30 H9        -11.4111   -4.5431    0.6113 H         1 <0>         0.4244
     31 H10       -10.3582   -5.2403    1.7195 H         1 <0>         0.4288
     32 H11        -8.4217   -1.3172   -2.6120 H         1 <0>         0.1133
     33 H12        -9.4262   -0.3014   -1.5439 H         1 <0>         0.1331
     34 H13        -7.1793    0.7239   -2.1152 H         1 <0>         0.1470
     35 H14        -7.4590    0.5200   -0.3727 H         1 <0>         0.1371
     36 H15        -5.2720   -0.2185   -1.2240 H         1 <0>         0.4329
     37 H16        -6.0376   -1.4562   -1.9962 H         1 <0>         0.4285
@<TRIPOS>BOND
     1    1    2 1
     2    1   22 1
     3    1   23 1
     4    1   24 1
     5    2    3 1
     6    3    8 ar
     7    3    4 ar
     8    4    5 ar
     9    4   21 1
    10    5    6 ar
    11    5   25 1
    12    6    7 ar
    13    6   10 1
    14    7    8 ar
    15    7   26 1
    16    8    9 1
    17   10   11 1
    18   10   27 1
    19   10   28 1
    20   11   20 1
    21   11   12 1
    22   11   29 1
    23   12   16 1
    24   12   13 2
    25   13   14 1
    26   13   18 1
    27   14   15 2
    28   15   16 1
    29   15   17 1
    30   17   30 1
    31   17   31 1
    32   18   19 1
    33   18   32 1
    34   18   33 1
    35   19   20 1
    36   19   34 1
    37   19   35 1
    38   20   36 1
    39   20   37 1
@<TRIPOS>MOLECULE
CHEMBL307647__1
   36    38     0     0     0
SMALL
USER_CHARGES

@<TRIPOS>ATOM
      1 C1         -0.0173    1.4248    0.0099 C.3       1 <0>         0.0322
      2 O1          0.0021   -0.0041    0.0020 O.3       1 <0>        -0.3213
      3 C2         -1.2004   -0.6375    0.0101 C.ar      1 <0>         0.1570
      4 C3         -1.8066   -0.9629    1.2152 C.ar      1 <0>        -0.1209
      5 C4         -3.0293   -1.6071    1.2205 C.ar      1 <0>        -0.0538
      6 C5         -3.6486   -1.9273    0.0266 C.ar      1 <0>        -0.0832
      7 C6         -3.0467   -1.6048   -1.1756 C.ar      1 <0>        -0.0456
      8 C7         -1.8269   -0.9550   -1.1867 C.ar      1 <0>        -0.1213
      9 I1         -0.9203   -0.4577   -3.0087 I         1 <0>        -0.0122
     10 C8         -4.9819   -2.6297    0.0355 C.3       1 <0>        -0.0698
     11 C9         -6.1054   -1.5912    0.0449 C.3       1 <0>         0.1932
     12 C10        -7.4244   -2.2775    0.1420 C.2       1 <0>        -0.2628
     13 C11        -8.5368   -2.0199   -0.5943 C.2       1 <0>         0.1304
     14 N1         -9.5867   -2.7833   -0.3102 N.2       1 <0>        -0.5934
     15 C12        -9.5364   -3.7133    0.6198 C.2       1 <0>         0.3236
     16 S1         -7.9569   -3.5944    1.1968 S.3       1 <0>         0.1047
     17 N2        -10.5389   -4.5798    1.0265 N.pl3     1 <0>        -0.8040
     18 C13        -8.5059   -0.9192   -1.6463 C.3       1 <0>        -0.0368
     19 C14        -7.3042   -0.0153   -1.3540 C.3       1 <0>         0.0584
     20 N3         -6.0822   -0.8198   -1.2142 N.3       1 <0>        -0.6764
     21 I2         -0.8687   -0.4786    3.0249 I         1 <0>        -0.0142
     22 H1          1.0053    1.8021    0.0021 H         1 <0>         0.1048
     23 H2         -0.5445    1.7859   -0.8732 H         1 <0>         0.0518
     24 H3         -0.5275    1.7763    0.9067 H         1 <0>         0.0511
     25 H4         -3.5014   -1.8608    2.1582 H         1 <0>         0.1393
     26 H5         -3.5324   -1.8564   -2.1068 H         1 <0>         0.1476
     27 H6         -5.0703   -3.2527   -0.8545 H         1 <0>         0.0946
     28 H7         -5.0573   -3.2547    0.9254 H         1 <0>         0.0839
     29 H8         -5.9768   -0.9174    0.8920 H         1 <0>         0.0573
     30 H9        -11.4124   -4.5422    0.6064 H         1 <0>         0.4148
     31 H10       -10.3670   -5.2239    1.7311 H         1 <0>         0.4196
     32 H11        -8.4021   -1.3603   -2.6377 H         1 <0>         0.0908
     33 H12        -9.4256   -0.3364   -1.5965 H         1 <0>         0.0857
     34 H13        -7.1779    0.6930   -2.1728 H         1 <0>         0.0873
     35 H14        -7.4824    0.5341   -0.4296 H         1 <0>         0.0384
     36 H15        -5.2589   -0.2390   -1.2673 H         1 <0>         0.3493
@<TRIPOS>BOND
     1    1    2 1
     2    1   22 1
     3    1   23 1
     4    1   24 1
     5    2    3 1
     6    3    8 ar
     7    3    4 ar
     8    4    5 ar
     9    4   21 1
    10    5    6 ar
    11    5   25 1
    12    6    7 ar
    13    6   10 1
    14    7    8 ar
    15    7   26 1
    16    8    9 1
    17   10   11 1
    18   10   27 1
    19   10   28 1
    20   11   20 1
    21   11   12 1
    22   11   29 1
    23   12   16 1
    24   12   13 2
    25   13   14 1
    26   13   18 1
    27   14   15 2
    28   15   16 1
    29   15   17 1
    30   17   30 1
    31   17   31 1
    32   18   19 1
    33   18   32 1
    34   18   33 1
    35   19   20 1
    36   19   34 1
    37   19   35 1
    38   20   36 1
@<TRIPOS>MOLECULE
CHEMBL307647__2
   38    40     0     0     0
SMALL
USER_CHARGES

@<TRIPOS>ATOM
      1 C1         -0.0173    1.4248    0.0099 C.3       1 <0>         0.0313
      2 O1          0.0021   -0.0041    0.0020 O.3       1 <0>        -0.3188
      3 C2          0.6059   -0.6072   -1.0559 C.ar      1 <0>         0.1893
      4 C3         -0.1298   -0.9214   -2.1897 C.ar      1 <0>        -0.1223
      5 C4          0.4866   -1.5347   -3.2639 C.ar      1 <0>        -0.0381
      6 C5          1.8351   -1.8352   -3.2095 C.ar      1 <0>        -0.1440
      7 C6          2.5704   -1.5236   -2.0809 C.ar      1 <0>        -0.0739
      8 C7          1.9603   -0.9047   -1.0062 C.ar      1 <0>        -0.1243
      9 I1          3.0775   -0.4239    0.6996 I         1 <0>         0.0200
     10 C8          2.5045   -2.5039   -4.3824 C.3       1 <0>        -0.0959
     11 C9          3.0417   -1.4376   -5.3391 C.3       1 <0>         0.1397
     12 C10         3.6235   -2.0913   -6.5446 C.2       1 <0>        -0.2839
     13 C11         4.8050   -1.7919   -7.1458 C.2       1 <0>         0.1218
     14 N1          5.0970   -2.5314   -8.2096 N.pl3     1 <0>        -0.5498
     15 C12         4.2887   -3.4779   -8.6386 C.cat     1 <0>         0.3311
     16 S1          3.0048   -3.4102   -7.5481 S.3       1 <0>         0.4476
     17 N2          4.4534   -4.3246   -9.7236 N.pl3     1 <0>        -0.7285
     18 C13         5.6691   -0.6722   -6.5807 C.3       1 <0>        -0.0856
     19 C14         4.7903    0.1823   -5.6613 C.3       1 <0>        -0.0062
     20 N3          4.1079   -0.6634   -4.6738 N.4       1 <0>        -0.5111
     21 I2         -2.1733   -0.4672   -2.2727 I         1 <0>         0.0225
     22 H1          1.0053    1.8021    0.0021 H         1 <0>         0.0555
     23 H2         -0.5445    1.7859   -0.8732 H         1 <0>         0.0566
     24 H3         -0.5275    1.7763    0.9067 H         1 <0>         0.1173
     25 H4         -0.0856   -1.7798   -4.1464 H         1 <0>         0.1481
     26 H5          3.6235   -1.7597   -2.0409 H         1 <0>         0.1395
     27 H6          3.3293   -3.1213   -4.0265 H         1 <0>         0.1169
     28 H7          1.7813   -3.1299   -4.9051 H         1 <0>         0.1294
     29 H8          2.2332   -0.7696   -5.6364 H         1 <0>         0.1767
     30 H9          5.2484   -4.2570  -10.2753 H         1 <0>         0.4429
     31 H10         3.7737   -4.9848   -9.9312 H         1 <0>         0.4589
     32 H11         6.4960   -1.0962   -6.0109 H         1 <0>         0.1396
     33 H12         6.0571   -0.0592   -7.3942 H         1 <0>         0.1522
     34 H13         5.4131    0.9113   -5.1427 H         1 <0>         0.1673
     35 H14         4.0469    0.7085   -6.2601 H         1 <0>         0.1498
     36 H15         3.7028   -0.0818   -3.9557 H         1 <0>         0.4494
     37 H16         5.9279   -2.3697   -8.6833 H         1 <0>         0.4444
     38 H17         4.7734   -1.2971   -4.2572 H         1 <0>         0.4345
@<TRIPOS>BOND
     1    1    2 1
     2    1   22 1
     3    1   23 1
     4    1   24 1
     5    2    3 1
     6    3    8 ar
     7    3    4 ar
     8    4    5 ar
     9    4   21 1
    10    5    6 ar
    11    5   25 1
    12    6    7 ar
    13    6   10 1
    14    7    8 ar
    15    7   26 1
    16    8    9 1
    17   10   11 1
    18   10   27 1
    19   10   28 1
    20   11   20 1
    21   11   12 1
    22   11   29 1
    23   12   16 1
    24   12   13 2
    25   13   14 1
    26   13   18 1
    27   14   15 2
    28   14   37 1
    29   15   16 1
    30   15   17 1
    31   17   30 1
    32   17   31 1
    33   18   19 1
    34   18   32 1
    35   18   33 1
    36   19   20 1
    37   19   34 1
    38   19   35 1
    39   20   36 1
    40   20   38 1
@<TRIPOS>MOLECULE
CHEMBL307647__3
   37    39     0     0     0
SMALL
USER_CHARGES

@<TRIPOS>ATOM
      1 C1         -0.0173    1.4248    0.0099 C.3       1 <0>         0.0322
      2 O1          0.0021   -0.0041    0.0020 O.3       1 <0>        -0.3209
      3 C2          0.6259   -0.6185    1.0416 C.ar      1 <0>         0.1683
      4 C3          1.9804   -0.9101    0.9652 C.ar      1 <0>        -0.1235
      5 C4          2.6122   -1.5350    2.0238 C.ar      1 <0>        -0.0516
      6 C5          1.8959   -1.8694    3.1581 C.ar      1 <0>        -0.1007
      7 C6          0.5462   -1.5803    3.2367 C.ar      1 <0>        -0.0445
      8 C7         -0.0893   -0.9500    2.1836 C.ar      1 <0>        -0.1238
      9 I1         -2.1324   -0.5034    2.3077 I         1 <0>        -0.0019
     10 C8          2.5876   -2.5506    4.3108 C.3       1 <0>        -0.0702
     11 C9          3.1311   -1.4947    5.2754 C.3       1 <0>         0.1710
     12 C10         3.8915   -2.1583    6.3716 C.2       1 <0>        -0.1876
     13 C11         3.8035   -1.8982    7.7023 C.2       1 <0>         0.0934
     14 N1          4.5932   -2.6392    8.4721 N.pl3     1 <0>        -0.5425
     15 C12         5.3970   -3.5509    7.9668 C.cat     1 <0>         0.3137
     16 S1          5.1040   -3.4454    6.3100 S.3       1 <0>         0.3732
     17 N2          6.2722   -4.3930    8.6348 N.pl3     1 <0>        -0.7546
     18 C13         2.8495   -0.8193    8.1976 C.3       1 <0>        -0.0525
     19 C14         2.4794    0.0714    7.0076 C.3       1 <0>         0.0518
     20 N3          2.0100   -0.7491    5.8822 N.3       1 <0>        -0.6754
     21 I2          3.0664   -0.4045   -0.7534 I         1 <0>        -0.0035
     22 H1          1.0053    1.8021    0.0021 H         1 <0>         0.0525
     23 H2         -0.5445    1.7859   -0.8732 H         1 <0>         0.1091
     24 H3         -0.5275    1.7763    0.9067 H         1 <0>         0.0531
     25 H4          3.6663   -1.7625    1.9647 H         1 <0>         0.1395
     26 H5         -0.0111   -1.8429    4.1238 H         1 <0>         0.1476
     27 H6          1.8768   -3.1898    4.8345 H         1 <0>         0.1015
     28 H7          3.4114   -3.1564    3.9334 H         1 <0>         0.0868
     29 H8          3.7834   -0.8062    4.7382 H         1 <0>         0.0874
     30 H9          6.3443   -4.3499    9.6011 H         1 <0>         0.4339
     31 H10         6.8125   -5.0255    8.1358 H         1 <0>         0.4505
     32 H11         1.9504   -1.2818    8.6049 H         1 <0>         0.1173
     33 H12         3.3376   -0.2214    8.9672 H         1 <0>         0.1054
     34 H13         1.6896    0.7611    7.3051 H         1 <0>         0.1085
     35 H14         3.3551    0.6418    6.6978 H         1 <0>         0.0524
     36 H15         1.5380   -0.1823    5.1937 H         1 <0>         0.3695
     37 H16         4.5772   -2.5046    9.4326 H         1 <0>         0.4345
@<TRIPOS>BOND
     1    1    2 1
     2    1   22 1
     3    1   23 1
     4    1   24 1
     5    2    3 1
     6    3    8 ar
     7    3    4 ar
     8    4    5 ar
     9    4   21 1
    10    5    6 ar
    11    5   25 1
    12    6    7 ar
    13    6   10 1
    14    7    8 ar
    15    7   26 1
    16    8    9 1
    17   10   11 1
    18   10   27 1
    19   10   28 1
    20   11   20 1
    21   11   12 1
    22   11   29 1
    23   12   16 1
    24   12   13 2
    25   13   14 1
    26   13   18 1
    27   14   15 2
    28   14   37 1
    29   15   16 1
    30   15   17 1
    31   17   30 1
    32   17   31 1
    33   18   19 1
    34   18   32 1
    35   18   33 1
    36   19   20 1
    37   19   34 1
    38   19   35 1
    39   20   36 1
@<TRIPOS>MOLECULE
CHEMBL307647__4
   37    39     0     0     0
SMALL
USER_CHARGES

@<TRIPOS>ATOM
      1 C1         -0.0173    1.4248    0.0099 C.3       1 <0>         0.0314
      2 O1          0.0021   -0.0041    0.0020 O.3       1 <0>        -0.3194
      3 C2         -1.2004   -0.6375    0.0101 C.ar      1 <0>         0.1781
      4 C3         -1.8066   -0.9629    1.2152 C.ar      1 <0>        -0.1220
      5 C4         -3.0293   -1.6071    1.2205 C.ar      1 <0>        -0.0754
      6 C5         -3.6486   -1.9273    0.0266 C.ar      1 <0>        -0.1265
      7 C6         -3.0467   -1.6048   -1.1756 C.ar      1 <0>        -0.0400
      8 C7         -1.8269   -0.9550   -1.1867 C.ar      1 <0>        -0.1200
      9 I1         -0.9203   -0.4577   -3.0087 I         1 <0>         0.0117
     10 C8         -4.9819   -2.6297    0.0355 C.3       1 <0>        -0.0955
     11 C9         -6.1054   -1.5912    0.0449 C.3       1 <0>         0.1603
     12 C10        -7.4248   -2.2777   -0.0384 C.2       1 <0>        -0.3712
     13 C11        -8.5326   -2.0105    0.7022 C.2       1 <0>         0.1595
     14 N1         -9.5849   -2.7752    0.4345 N.2       1 <0>        -0.5951
     15 C12        -9.5421   -3.7154   -0.4860 C.2       1 <0>         0.3500
     16 S1         -7.9665   -3.6046   -1.0754 S.3       1 <0>         0.1894
     17 N2        -10.5482   -4.5855   -0.8758 N.pl3     1 <0>        -0.7839
     18 C13        -8.4881   -0.8954    1.7388 C.3       1 <0>        -0.0702
     19 C14        -7.2790   -0.0083    1.4244 C.3       1 <0>        -0.0020
     20 N3         -6.0632   -0.8235    1.3049 N.4       1 <0>        -0.5076
     21 I2         -0.8687   -0.4786    3.0249 I         1 <0>         0.0094
     22 H1          1.0053    1.8021    0.0021 H         1 <0>         0.1131
     23 H2         -0.5445    1.7859   -0.8732 H         1 <0>         0.0551
     24 H3         -0.5275    1.7763    0.9067 H         1 <0>         0.0541
     25 H4         -3.5014   -1.8608    2.1582 H         1 <0>         0.1394
     26 H5         -3.5324   -1.8564   -2.1068 H         1 <0>         0.1478
     27 H6         -5.0703   -3.2527   -0.8545 H         1 <0>         0.1254
     28 H7         -5.0573   -3.2547    0.9254 H         1 <0>         0.1091
     29 H8         -5.9879   -0.9150   -0.8018 H         1 <0>         0.1496
     30 H9        -11.4188   -4.5420   -0.4503 H         1 <0>         0.4244
     31 H10       -10.3818   -5.2377   -1.5742 H         1 <0>         0.4288
     32 H11        -9.4027   -0.3050    1.6848 H         1 <0>         0.1331
     33 H12        -8.3826   -1.3228    2.7359 H         1 <0>         0.1133
     34 H13        -7.4530    0.5192    0.4865 H         1 <0>         0.1371
     35 H14        -7.1479    0.7195    2.2251 H         1 <0>         0.1469
     36 H15        -6.0077   -1.4608    2.0851 H         1 <0>         0.4285
     37 H16        -5.2535   -0.2214    1.3046 H         1 <0>         0.4329
@<TRIPOS>BOND
     1    1    2 1
     2    1   22 1
     3    1   23 1
     4    1   24 1
     5    2    3 1
     6    3    8 ar
     7    3    4 ar
     8    4    5 ar
     9    4   21 1
    10    5    6 ar
    11    5   25 1
    12    6    7 ar
    13    6   10 1
    14    7    8 ar
    15    7   26 1
    16    8    9 1
    17   10   11 1
    18   10   27 1
    19   10   28 1
    20   11   20 1
    21   11   12 1
    22   11   29 1
    23   12   16 1
    24   12   13 2
    25   13   14 1
    26   13   18 1
    27   14   15 2
    28   15   16 1
    29   15   17 1
    30   17   30 1
    31   17   31 1
    32   18   19 1
    33   18   32 1
    34   18   33 1
    35   19   20 1
    36   19   34 1
    37   19   35 1
    38   20   36 1
    39   20   37 1
@<TRIPOS>MOLECULE
CHEMBL307647__5
   38    40     0     0     0
SMALL
USER_CHARGES

@<TRIPOS>ATOM
      1 C1         -0.0173    1.4248    0.0099 C.3       1 <0>         0.0313
      2 O1          0.0021   -0.0041    0.0020 O.3       1 <0>        -0.3188
      3 C2          0.6059   -0.6072   -1.0559 C.ar      1 <0>         0.1893
      4 C3         -0.1298   -0.9214   -2.1897 C.ar      1 <0>        -0.1241
      5 C4          0.4866   -1.5347   -3.2639 C.ar      1 <0>        -0.0741
      6 C5          1.8351   -1.8352   -3.2095 C.ar      1 <0>        -0.1440
      7 C6          2.5704   -1.5236   -2.0809 C.ar      1 <0>        -0.0380
      8 C7          1.9603   -0.9047   -1.0062 C.ar      1 <0>        -0.1222
      9 I1          3.0775   -0.4239    0.6996 I         1 <0>         0.0225
     10 C8          2.5045   -2.5039   -4.3824 C.3       1 <0>        -0.0959
     11 C9          3.0417   -1.4376   -5.3391 C.3       1 <0>         0.1397
     12 C10         3.7839   -2.0904   -6.4536 C.2       1 <0>        -0.2838
     13 C11         3.6919   -1.7980   -7.7776 C.2       1 <0>         0.1218
     14 N1          4.4616   -2.5351   -8.5702 N.pl3     1 <0>        -0.5498
     15 C12         5.2519   -3.4730   -8.0917 C.cat     1 <0>         0.3311
     16 S1          4.9734   -3.3996   -6.4306 S.3       1 <0>         0.4475
     17 N2          6.1059   -4.3161   -8.7854 N.pl3     1 <0>        -0.7285
     18 C13         2.7546   -0.6881   -8.2351 C.3       1 <0>        -0.0856
     19 C14         2.4089    0.1695   -7.0133 C.3       1 <0>        -0.0061
     20 N3          1.9175   -0.6755   -5.9171 N.4       1 <0>        -0.5112
     21 I2         -2.1733   -0.4672   -2.2727 I         1 <0>         0.0200
     22 H1          1.0053    1.8021    0.0021 H         1 <0>         0.0566
     23 H2         -0.5445    1.7859   -0.8732 H         1 <0>         0.0555
     24 H3         -0.5275    1.7763    0.9067 H         1 <0>         0.1173
     25 H4         -0.0856   -1.7798   -4.1464 H         1 <0>         0.1395
     26 H5          3.6235   -1.7597   -2.0409 H         1 <0>         0.1481
     27 H6          3.3293   -3.1213   -4.0265 H         1 <0>         0.1294
     28 H7          1.7813   -3.1299   -4.9051 H         1 <0>         0.1169
     29 H8          3.7058   -0.7615   -4.8006 H         1 <0>         0.1767
     30 H9          6.1715   -4.2525   -9.7511 H         1 <0>         0.4429
     31 H10         6.6380   -4.9696   -8.3051 H         1 <0>         0.4588
     32 H11         3.2492   -0.0747   -8.9882 H         1 <0>         0.1522
     33 H12         1.8450   -1.1215   -8.6508 H         1 <0>         0.1396
     34 H13         3.2998    0.7045   -6.6846 H         1 <0>         0.1498
     35 H14         1.6385    0.8909   -7.2855 H         1 <0>         0.1672
     36 H15         1.2239   -1.3168   -6.2720 H         1 <0>         0.4346
     37 H16         4.4405   -2.3785   -9.5273 H         1 <0>         0.4444
     38 H17         1.5037   -0.0940   -5.2040 H         1 <0>         0.4494
@<TRIPOS>BOND
     1    1    2 1
     2    1   22 1
     3    1   23 1
     4    1   24 1
     5    2    3 1
     6    3    8 ar
     7    3    4 ar
     8    4    5 ar
     9    4   21 1
    10    5    6 ar
    11    5   25 1
    12    6    7 ar
    13    6   10 1
    14    7    8 ar
    15    7   26 1
    16    8    9 1
    17   10   11 1
    18   10   27 1
    19   10   28 1
    20   11   20 1
    21   11   12 1
    22   11   29 1
    23   12   16 1
    24   12   13 2
    25   13   14 1
    26   13   18 1
    27   14   15 2
    28   14   37 1
    29   15   16 1
    30   15   17 1
    31   17   30 1
    32   17   31 1
    33   18   19 1
    34   18   32 1
    35   18   33 1
    36   19   20 1
    37   19   34 1
    38   19   35 1
    39   20   36 1
    40   20   38 1
@<TRIPOS>MOLECULE
CHEMBL307647__6
   37    39     0     0     0
SMALL
USER_CHARGES

@<TRIPOS>ATOM
      1 C1         -0.0173    1.4248    0.0099 C.3       1 <0>         0.0327
      2 O1          0.0021   -0.0041    0.0020 O.3       1 <0>        -0.3219
      3 C2          0.6259   -0.6185    1.0416 C.ar      1 <0>         0.1671
      4 C3          1.9804   -0.9101    0.9652 C.ar      1 <0>        -0.1218
      5 C4          2.6122   -1.5350    2.0238 C.ar      1 <0>        -0.0306
      6 C5          1.8959   -1.8694    3.1581 C.ar      1 <0>        -0.0871
      7 C6          0.5462   -1.5803    3.2367 C.ar      1 <0>        -0.0509
      8 C7         -0.0893   -0.9500    2.1836 C.ar      1 <0>        -0.1225
      9 I1         -2.1324   -0.5034    2.3077 I         1 <0>        -0.0067
     10 C8          2.5876   -2.5506    4.3108 C.3       1 <0>        -0.0755
     11 C9          3.1311   -1.4947    5.2754 C.3       1 <0>         0.1726
     12 C10         3.7395   -2.1616    6.4610 C.2       1 <0>        -0.2197
     13 C11         4.9355   -1.8735    7.0375 C.2       1 <0>         0.0825
     14 N1          5.2472   -2.6250    8.0881 N.pl3     1 <0>        -0.5423
     15 C12         4.4444   -3.5716    8.5262 C.cat     1 <0>         0.3138
     16 S1          3.1372   -3.4881    7.4649 S.3       1 <0>         0.3677
     17 N2          4.6288   -4.4288    9.5998 N.pl3     1 <0>        -0.7541
     18 C13         5.7972   -0.7552    6.4667 C.3       1 <0>        -0.0966
     19 C14         4.9096    0.1244    5.5806 C.3       1 <0>         0.0539
     20 N3          4.1823   -0.7018    4.6066 N.3       1 <0>        -0.6521
     21 I2          3.0664   -0.4045   -0.7534 I         1 <0>        -0.0061
     22 H1          1.0053    1.8021    0.0021 H         1 <0>         0.0530
     23 H2         -0.5445    1.7859   -0.8732 H         1 <0>         0.1079
     24 H3         -0.5275    1.7763    0.9067 H         1 <0>         0.0525
     25 H4          3.6663   -1.7625    1.9647 H         1 <0>         0.1379
     26 H5         -0.0111   -1.8429    4.1238 H         1 <0>         0.1381
     27 H6          1.8768   -3.1898    4.8345 H         1 <0>         0.0905
     28 H7          3.4114   -3.1564    3.9334 H         1 <0>         0.0913
     29 H8          2.3224   -0.8380    5.5961 H         1 <0>         0.1278
     30 H9          5.4359   -4.3697   10.1345 H         1 <0>         0.4337
     31 H10         3.9507   -5.0877    9.8163 H         1 <0>         0.4508
     32 H11         6.2122   -0.1589    7.2793 H         1 <0>         0.1096
     33 H12         6.6053   -1.1804    5.8714 H         1 <0>         0.1106
     34 H13         4.1947    0.6601    6.2050 H         1 <0>         0.0924
     35 H14         5.5315    0.8449    5.0492 H         1 <0>         0.1134
     36 H15         4.8145   -1.2985    4.0945 H         1 <0>         0.3546
     37 H16         6.0892   -2.4717    8.5447 H         1 <0>         0.4337
@<TRIPOS>BOND
     1    1    2 1
     2    1   22 1
     3    1   23 1
     4    1   24 1
     5    2    3 1
     6    3    8 ar
     7    3    4 ar
     8    4    5 ar
     9    4   21 1
    10    5    6 ar
    11    5   25 1
    12    6    7 ar
    13    6   10 1
    14    7    8 ar
    15    7   26 1
    16    8    9 1
    17   10   11 1
    18   10   27 1
    19   10   28 1
    20   11   20 1
    21   11   12 1
    22   11   29 1
    23   12   16 1
    24   12   13 2
    25   13   14 1
    26   13   18 1
    27   14   15 2
    28   14   37 1
    29   15   16 1
    30   15   17 1
    31   17   30 1
    32   17   31 1
    33   18   19 1
    34   18   32 1
    35   18   33 1
    36   19   20 1
    37   19   34 1
    38   19   35 1
    39   20   36 1
@<TRIPOS>MOLECULE
CHEMBL307647__7
   36    38     0     0     0
SMALL
USER_CHARGES

@<TRIPOS>ATOM
      1 C1         -0.0173    1.4248    0.0099 C.3       1 <0>         0.0327
      2 O1          0.0021   -0.0041    0.0020 O.3       1 <0>        -0.3222
      3 C2         -1.2004   -0.6375    0.0101 C.ar      1 <0>         0.1556
      4 C3         -1.8066   -0.9629    1.2152 C.ar      1 <0>        -0.1191
      5 C4         -3.0293   -1.6071    1.2205 C.ar      1 <0>        -0.0324
      6 C5         -3.6486   -1.9273    0.0266 C.ar      1 <0>        -0.0692
      7 C6         -3.0467   -1.6048   -1.1756 C.ar      1 <0>        -0.0534
      8 C7         -1.8269   -0.9550   -1.1867 C.ar      1 <0>        -0.1200
      9 I1         -0.9203   -0.4577   -3.0087 I         1 <0>        -0.0174
     10 C8         -4.9819   -2.6297    0.0355 C.3       1 <0>        -0.0747
     11 C9         -6.1054   -1.5912    0.0449 C.3       1 <0>         0.1908
     12 C10        -7.4257   -2.2773   -0.0344 C.2       1 <0>        -0.2957
     13 C11        -8.5272   -2.0214    0.7187 C.2       1 <0>         0.1215
     14 N1         -9.5811   -2.7841    0.4483 N.2       1 <0>        -0.5932
     15 C12        -9.5445   -3.7121   -0.4845 C.2       1 <0>         0.3234
     16 S1         -7.9736   -3.5918   -1.0843 S.3       1 <0>         0.1032
     17 N2        -10.5529   -4.5777   -0.8784 N.pl3     1 <0>        -0.8036
     18 C13        -8.4809   -0.9230    1.7726 C.3       1 <0>        -0.0793
     19 C14        -7.2836   -0.0183    1.4646 C.3       1 <0>         0.0575
     20 N3         -6.0638   -0.8226    1.3053 N.3       1 <0>        -0.6618
     21 I2         -0.8687   -0.4786    3.0249 I         1 <0>        -0.0165
     22 H1          1.0053    1.8021    0.0021 H         1 <0>         0.1036
     23 H2         -0.5445    1.7859   -0.8732 H         1 <0>         0.0510
     24 H3         -0.5275    1.7763    0.9067 H         1 <0>         0.0518
     25 H4         -3.5014   -1.8608    2.1582 H         1 <0>         0.1383
     26 H5         -3.5324   -1.8564   -2.1068 H         1 <0>         0.1378
     27 H6         -5.0703   -3.2527   -0.8545 H         1 <0>         0.0867
     28 H7         -5.0573   -3.2547    0.9254 H         1 <0>         0.0840
     29 H8         -5.9892   -0.9155   -0.8024 H         1 <0>         0.0991
     30 H9        -11.4204   -4.5405   -0.4459 H         1 <0>         0.4148
     31 H10       -10.3911   -5.2206   -1.5864 H         1 <0>         0.4200
     32 H11        -9.4013   -0.3401    1.7375 H         1 <0>         0.0890
     33 H12        -8.3626   -1.3663    2.7613 H         1 <0>         0.0839
     34 H13        -7.4755    0.5330    0.5441 H         1 <0>         0.0785
     35 H14        -7.1454    0.6882    2.2831 H         1 <0>         0.0913
     36 H15        -5.9269   -1.4332    2.0968 H         1 <0>         0.3438
@<TRIPOS>BOND
     1    1    2 1
     2    1   22 1
     3    1   23 1
     4    1   24 1
     5    2    3 1
     6    3    8 ar
     7    3    4 ar
     8    4    5 ar
     9    4   21 1
    10    5    6 ar
    11    5   25 1
    12    6    7 ar
    13    6   10 1
    14    7    8 ar
    15    7   26 1
    16    8    9 1
    17   10   11 1
    18   10   27 1
    19   10   28 1
    20   11   20 1
    21   11   12 1
    22   11   29 1
    23   12   16 1
    24   12   13 2
    25   13   14 1
    26   13   18 1
    27   14   15 2
    28   15   16 1
    29   15   17 1
    30   17   30 1
    31   17   31 1
    32   18   19 1
    33   18   32 1
    34   18   33 1
    35   19   20 1
    36   19   34 1
    37   19   35 1
    38   20   36 1
@<TRIPOS>MOLECULE
CHEMBL183552
   73    77     0     0     0
SMALL
USER_CHARGES

@<TRIPOS>ATOM
      1 C1         -0.0187    1.5258    0.0104 C.3       1 <0>        -0.1843
      2 C2          0.0021   -0.0041    0.0020 C.3       1 <0>         0.0272
      3 H1         -1.0205   -0.3814    0.0098 H         1 <0>         0.1396
      4 C3          0.7421   -0.5109    1.2415 C.3       1 <0>        -0.0579
      5 C4          0.6567   -2.0144    1.2978 C.2       1 <0>        -0.2301
      6 C5         -0.2496   -2.7379    1.9742 C.2       1 <0>         0.1118
      7 N1         -0.0127   -4.0722    1.7894 N.pl3     1 <0>        -0.5697
      8 H2         -0.5361   -4.7904    2.1782 H         1 <0>         0.4293
      9 C6          1.0807   -4.2438    0.9680 C.ar      1 <0>         0.1200
     10 C7          1.5430   -2.9632    0.6196 C.ar      1 <0>        -0.1031
     11 C8          2.6511   -2.8259   -0.2206 C.ar      1 <0>        -0.0877
     12 C9          3.2801   -3.9382   -0.7043 C.ar      1 <0>        -0.1080
     13 C10         2.8283   -5.2067   -0.3686 C.ar      1 <0>        -0.1034
     14 C11         1.7394   -5.3674    0.4678 C.ar      1 <0>         0.0744
     15 O1          1.3029   -6.6143    0.7889 O.3       1 <0>        -0.6606
     16 S1          0.2696   -7.1763   -0.1770 S.o2      1 <0>         2.5866
     17 O2         -0.2354   -8.3376    0.4676 O.2       1 <0>        -0.9178
     18 O3         -0.5864   -6.0805   -0.4702 O.2       1 <0>        -0.9573
     19 C12         1.2158   -7.6423   -1.6528 C.3       1 <0>        -0.6935
     20 N2          0.6897   -0.4778   -1.2066 N.4       1 <0>        -0.5061
     21 C13        -0.0856   -0.0931   -2.3936 C.3       1 <0>        -0.0466
     22 C14         0.6305   -0.5866   -3.6524 C.3       1 <0>         0.1352
     23 H3          0.7239   -1.6719   -3.6155 H         1 <0>         0.1284
     24 C15        -0.1648   -0.1919   -4.8701 C.ar      1 <0>        -0.0892
     25 C16         0.0062    1.0609   -5.4306 C.ar      1 <0>        -0.1695
     26 C17        -0.7218    1.4272   -6.5475 C.ar      1 <0>        -0.0606
     27 C18        -1.6223    0.5422   -7.1077 C.ar      1 <0>        -0.1825
     28 C19        -1.7961   -0.7168   -6.5476 C.ar      1 <0>         0.2273
     29 C20        -1.0592   -1.0835   -5.4283 C.ar      1 <0>        -0.1834
     30 N3         -2.7059   -1.6142   -7.1114 N.pl3     1 <0>        -0.7378
     31 C21        -3.4781   -1.2278   -8.2949 C.3       1 <0>         0.1644
     32 C22        -4.3792   -2.3657   -8.7003 C.ar      1 <0>        -0.1111
     33 C23        -3.9115   -3.3261   -9.5956 C.ar      1 <0>        -0.1048
     34 C24        -4.6996   -4.3660   -9.9825 C.ar      1 <0>        -0.1012
     35 C25        -6.0048   -4.4764   -9.4734 C.ar      1 <0>        -0.0455
     36 C26        -6.8477   -5.5363   -9.8492 C.ar      1 <0>        -0.1086
     37 C27        -8.1057   -5.6109   -9.3353 C.ar      1 <0>        -0.1087
     38 C28        -8.5732   -4.6507   -8.4398 C.ar      1 <0>        -0.1121
     39 C29        -7.7853   -3.6105   -8.0532 C.ar      1 <0>        -0.1065
     40 C30        -6.4802   -3.5000   -8.5627 C.ar      1 <0>        -0.0562
     41 C31        -5.6354   -2.4432   -8.1825 C.ar      1 <0>        -0.0799
     42 O4          1.9312    0.0013   -3.7219 O.3       1 <0>        -0.5473
     43 H4          1.0039    1.9031    0.0027 H         1 <0>         0.0838
     44 H5         -0.5459    1.8868   -0.8726 H         1 <0>         0.0819
     45 H6         -0.5289    1.8773    0.9072 H         1 <0>         0.1079
     46 H7          1.7879   -0.2080    1.1895 H         1 <0>         0.0974
     47 H8          0.2852   -0.0874    2.1360 H         1 <0>         0.1214
     48 H9         -1.0473   -2.3272    2.5754 H         1 <0>         0.1858
     49 H10         3.0094   -1.8426   -0.4874 H         1 <0>         0.1301
     50 H11         4.1360   -3.8293   -1.3538 H         1 <0>         0.1495
     51 H12         3.3361   -6.0763   -0.7590 H         1 <0>         0.1526
     52 H13         1.9641   -8.3880   -1.3841 H         1 <0>         0.1397
     53 H14         0.5408   -8.0581   -2.4009 H         1 <0>         0.1423
     54 H15         1.7111   -6.7609   -2.0602 H         1 <0>         0.1312
     55 H16         1.6080   -0.0627   -1.2556 H         1 <0>         0.4255
     56 H17        -1.0777   -0.5415   -2.3406 H         1 <0>         0.1430
     57 H18        -0.1790    0.9922   -2.4305 H         1 <0>         0.1403
     58 H19         0.7097    1.7547   -4.9946 H         1 <0>         0.1179
     59 H20        -0.5864    2.4065   -6.9823 H         1 <0>         0.1287
     60 H21        -2.1909    0.8290   -7.9799 H         1 <0>         0.1274
     61 H22        -1.1890   -2.0633   -4.9928 H         1 <0>         0.1227
     62 H23        -2.8265   -2.4932   -6.7194 H         1 <0>         0.4031
     63 H24        -4.0823   -0.3505   -8.0640 H         1 <0>         0.0719
     64 H25        -2.7968   -0.9946   -9.1131 H         1 <0>         0.0730
     65 H26        -2.9089   -3.2437   -9.9884 H         1 <0>         0.1242
     66 H27        -4.3240   -5.1024  -10.6776 H         1 <0>         0.1308
     67 H28        -6.4991   -6.2875  -10.5424 H         1 <0>         0.1300
     68 H29        -8.7516   -6.4262   -9.6260 H         1 <0>         0.1271
     69 H30        -9.5759   -4.7330   -8.0470 H         1 <0>         0.1266
     70 H31        -8.1611   -2.8737   -7.3588 H         1 <0>         0.1279
     71 H32        -5.9826   -1.6943   -7.4861 H         1 <0>         0.1276
     72 H33         1.9246    0.9676   -3.7575 H         1 <0>         0.3879
     73 H34         0.7761   -1.4825   -1.1724 H         1 <0>         0.4274
@<TRIPOS>BOND
     1    1    2 1
     2    1   43 1
     3    1   44 1
     4    1   45 1
     5    2    3 1
     6    2    4 1
     7    2   20 1
     8    4    5 1
     9    4   46 1
    10    4   47 1
    11    5   10 1
    12    5    6 2
    13    6    7 1
    14    6   48 1
    15    7    8 1
    16    7    9 1
    17    9   14 ar
    18    9   10 ar
    19   10   11 ar
    20   11   12 ar
    21   11   49 1
    22   12   13 ar
    23   12   50 1
    24   13   14 ar
    25   13   51 1
    26   14   15 1
    27   15   16 1
    28   16   17 2
    29   16   18 2
    30   16   19 1
    31   19   52 1
    32   19   53 1
    33   19   54 1
    34   20   21 1
    35   20   55 1
    36   20   73 1
    37   21   22 1
    38   21   56 1
    39   21   57 1
    40   22   23 1
    41   22   24 1
    42   22   42 1
    43   24   29 ar
    44   24   25 ar
    45   25   26 ar
    46   25   58 1
    47   26   27 ar
    48   26   59 1
    49   27   28 ar
    50   27   60 1
    51   28   29 ar
    52   28   30 1
    53   29   61 1
    54   30   31 1
    55   30   62 1
    56   31   32 1
    57   31   63 1
    58   31   64 1
    59   32   41 ar
    60   32   33 ar
    61   33   34 ar
    62   33   65 1
    63   34   35 ar
    64   34   66 1
    65   35   40 ar
    66   35   36 ar
    67   36   37 ar
    68   36   67 1
    69   37   38 ar
    70   37   68 1
    71   38   39 ar
    72   38   69 1
    73   39   40 ar
    74   39   70 1
    75   40   41 ar
    76   41   71 1
    77   42   72 1
@<TRIPOS>MOLECULE
CHEMBL453056
   69    72     0     0     0
SMALL
USER_CHARGES

@<TRIPOS>ATOM
      1 C1          1.3926    1.2214   -0.2583 C.3       1 <0>        -0.1828
      2 C2          1.1840   -0.2943   -0.2478 C.3       1 <0>         0.0290
      3 H1          1.5385   -0.7163   -1.1882 H         1 <0>         0.1404
      4 C3         -0.3051   -0.6030   -0.0795 C.3       1 <0>        -0.0931
      5 C4         -0.5258   -2.0895   -0.1921 C.ar      1 <0>        -0.1490
      6 C5         -0.7783   -2.6569   -1.4282 C.ar      1 <0>        -0.0975
      7 C6         -0.9812   -4.0175   -1.5374 C.ar      1 <0>        -0.1077
      8 C7         -0.9312   -4.8205   -0.3990 C.ar      1 <0>         0.0067
      9 C8         -0.6763   -4.2432    0.8440 C.ar      1 <0>        -0.1104
     10 C9         -0.4694   -2.8822    0.9403 C.ar      1 <0>        -0.1348
     11 C10        -1.1489   -6.2830   -0.5097 C.ar      1 <0>        -0.0563
     12 C11        -1.3988   -6.8576   -1.7584 C.ar      1 <0>        -0.1520
     13 C12        -1.6008   -8.2023   -1.8701 C.ar      1 <0>        -0.0524
     14 C13        -1.5587   -9.0165   -0.7320 C.ar      1 <0>        -0.1426
     15 C14        -1.3075   -8.4456    0.5263 C.ar      1 <0>         0.1606
     16 C15        -1.0980   -7.0808    0.6302 C.ar      1 <0>        -0.2113
     17 O1         -1.2652   -9.2278    1.6333 O.3       1 <0>        -0.2537
     18 C16        -1.1204   -8.5648    2.8909 C.3       1 <0>         0.0790
     19 C17         0.3628   -8.3057    3.1631 C.3       1 <0>        -0.1459
     20 C18         0.5178   -7.5959    4.5096 C.3       1 <0>        -0.1117
     21 C19        -0.0581   -8.4771    5.6199 C.3       1 <0>        -0.1238
     22 C20        -1.5413   -8.7362    5.3477 C.3       1 <0>        -0.1140
     23 C21        -1.6963   -9.4460    4.0012 C.3       1 <0>        -0.1155
     24 C22        -1.7774  -10.4653   -0.8537 C.2       1 <0>         0.5163
     25 O2         -1.9966  -10.9610   -1.9507 O.co2     1 <0>        -0.6890
     26 O3         -1.7403  -11.1754    0.1421 O.co2     1 <0>        -0.6605
     27 N1          1.9356   -0.8844    0.8679 N.4       1 <0>        -0.5048
     28 C23         3.3748   -0.6917    0.6450 C.3       1 <0>        -0.0459
     29 C24         4.1576   -1.3063    1.8070 C.3       1 <0>         0.1400
     30 H2          3.9390   -2.3724    1.8688 H         1 <0>         0.1344
     31 C25         5.6340   -1.1087    1.5784 C.ar      1 <0>        -0.1954
     32 C26         6.3900   -2.1018    0.9742 C.ar      1 <0>        -0.0542
     33 C27         7.7446   -1.8763    0.7842 C.ar      1 <0>        -0.1632
     34 C28         8.2927   -0.6775    1.2002 C.ar      1 <0>         0.1194
     35 N2          7.5431    0.2445    1.7718 N.ar      1 <0>        -0.4762
     36 C29         6.2503    0.0668    1.9630 C.ar      1 <0>         0.1157
     37 O4          3.7753   -0.6702    3.0282 O.3       1 <0>        -0.5442
     38 H3          2.4534    1.4413   -0.3782 H         1 <0>         0.0799
     39 H4          0.8349    1.6592   -1.0861 H         1 <0>         0.1077
     40 H5          1.0381    1.6434    0.6821 H         1 <0>         0.0832
     41 H6         -0.6390   -0.2593    0.8995 H         1 <0>         0.0952
     42 H7         -0.8723   -0.0915   -0.8571 H         1 <0>         0.1188
     43 H8         -0.8172   -2.0337   -2.3094 H         1 <0>         0.1274
     44 H9         -1.1787   -4.4593   -2.5029 H         1 <0>         0.1359
     45 H10        -0.6368   -4.8604    1.7294 H         1 <0>         0.1308
     46 H11        -0.2671   -2.4344    1.9020 H         1 <0>         0.1193
     47 H12        -1.4328   -6.2342   -2.6396 H         1 <0>         0.1182
     48 H13        -1.7938   -8.6395   -2.8386 H         1 <0>         0.1379
     49 H14        -0.9002   -6.6355    1.5941 H         1 <0>         0.1250
     50 H15        -1.6562   -7.6160    2.8653 H         1 <0>         0.0614
     51 H16         0.8986   -9.2546    3.1887 H         1 <0>         0.0772
     52 H17         0.7731   -7.6780    2.3721 H         1 <0>         0.0632
     53 H18         1.5744   -7.4114    4.7035 H         1 <0>         0.0628
     54 H19        -0.0180   -6.6471    4.4840 H         1 <0>         0.0569
     55 H20         0.4777   -9.4259    5.6455 H         1 <0>         0.0667
     56 H21         0.0523   -7.9714    6.5792 H         1 <0>         0.0619
     57 H22        -1.9516   -9.3639    6.1387 H         1 <0>         0.0702
     58 H23        -2.0771   -7.7873    5.3221 H         1 <0>         0.0599
     59 H24        -2.7529   -9.6305    3.8073 H         1 <0>         0.0737
     60 H25        -1.1605  -10.3948    4.0269 H         1 <0>         0.0784
     61 H26         1.6657   -0.4352    1.7301 H         1 <0>         0.4274
     62 H27         3.6663   -1.1770   -0.2865 H         1 <0>         0.1440
     63 H28         3.5933    0.3743    0.5832 H         1 <0>         0.1385
     64 H29         5.9345   -3.0291    0.6595 H         1 <0>         0.1425
     65 H30         8.3638   -2.6279    0.3172 H         1 <0>         0.1469
     66 H31         9.3471   -0.4940    1.0558 H         1 <0>         0.1659
     67 H32         5.6675    0.8470    2.4298 H         1 <0>         0.1526
     68 H33         3.9416    0.2823    3.0443 H         1 <0>         0.3874
     69 H34         1.7333   -1.8713    0.9251 H         1 <0>         0.4298
@<TRIPOS>BOND
     1    1    2 1
     2    1   38 1
     3    1   39 1
     4    1   40 1
     5    2    3 1
     6    2    4 1
     7    2   27 1
     8    4    5 1
     9    4   41 1
    10    4   42 1
    11    5   10 ar
    12    5    6 ar
    13    6    7 ar
    14    6   43 1
    15    7    8 ar
    16    7   44 1
    17    8    9 ar
    18    8   11 1
    19    9   10 ar
    20    9   45 1
    21   10   46 1
    22   11   16 ar
    23   11   12 ar
    24   12   13 ar
    25   12   47 1
    26   13   14 ar
    27   13   48 1
    28   14   15 ar
    29   14   24 1
    30   15   16 ar
    31   15   17 1
    32   16   49 1
    33   17   18 1
    34   18   23 1
    35   18   19 1
    36   18   50 1
    37   19   20 1
    38   19   51 1
    39   19   52 1
    40   20   21 1
    41   20   53 1
    42   20   54 1
    43   21   22 1
    44   21   55 1
    45   21   56 1
    46   22   23 1
    47   22   57 1
    48   22   58 1
    49   23   59 1
    50   23   60 1
    51   24   25 2
    52   24   26 1
    53   27   28 1
    54   27   61 1
    55   27   69 1
    56   28   29 1
    57   28   62 1
    58   28   63 1
    59   29   30 1
    60   29   31 1
    61   29   37 1
    62   31   36 ar
    63   31   32 ar
    64   32   33 ar
    65   32   64 1
    66   33   34 ar
    67   33   65 1
    68   34   35 ar
    69   34   66 1
    70   35   36 ar
    71   36   67 1
    72   37   68 1
@<TRIPOS>MOLECULE
CHEMBL1221861
   42    44     0     0     0
SMALL
USER_CHARGES

@<TRIPOS>ATOM
      1 C1         -0.0168    1.3854    0.0097 C.ar      1 <0>        -0.0804
      2 C2          1.1704    2.0906    0.0021 C.ar      1 <0>        -0.0869
      3 C3          2.3782    1.4150   -0.0130 C.ar      1 <0>        -0.0330
      4 C4          2.4002    0.0312   -0.0207 C.ar      1 <0>        -0.0890
      5 C5          1.2163   -0.6796   -0.0132 C.ar      1 <0>        -0.1205
      6 C6          0.0021   -0.0041    0.0020 C.ar      1 <0>        -0.0946
      7 S1         -1.5106   -0.9075    0.0122 S.3       1 <0>        -0.0501
      8 C7         -0.9850   -2.6436   -0.0023 C.3       1 <0>        -0.1668
      9 C8         -2.2178   -3.5498    0.0050 C.3       1 <0>         0.0098
     10 N1         -1.7922   -4.9557   -0.0067 N.4       1 <0>        -0.5021
     11 C9         -2.9758   -5.8258    0.0004 C.3       1 <0>        -0.0455
     12 C10        -2.5325   -7.2901   -0.0119 C.3       1 <0>         0.1632
     13 H1         -1.9266   -7.4937    0.8710 H         1 <0>         0.1163
     14 C11        -3.7467   -8.1826   -0.0046 C.ar      1 <0>        -0.2356
     15 C12        -4.2534   -8.6766   -1.1943 C.ar      1 <0>        -0.0374
     16 C13        -5.3691   -9.4949   -1.1639 C.ar      1 <0>        -0.2396
     17 C14        -5.9812   -9.8244    0.0271 C.ar      1 <0>         0.3008
     18 C15        -5.4859   -9.3353    1.2519 C.ar      1 <0>        -0.0287
     19 C16        -4.3525   -8.5143    1.1838 C.ar      1 <0>        -0.0474
     20 S2         -4.0363   -8.1185    2.8866 S.3       1 <0>        -0.1202
     21 C17        -5.3840   -9.0417    3.6070 C.2       1 <0>         0.5383
     22 O1         -5.6896   -9.1544    4.7799 O.2       1 <0>        -0.4750
     23 N2         -5.9847   -9.5727    2.5239 N.am      1 <0>        -0.6198
     24 H2         -6.7662  -10.1362    2.6359 H         1 <0>         0.4157
     25 O2         -7.0761  -10.6307    0.0192 O.3       1 <0>        -0.6850
     26 O3         -1.7613   -7.5445   -1.1878 O.3       1 <0>        -0.5549
     27 Cl1         3.8686    2.3051   -0.0231 Cl        1 <0>        -0.0544
     28 H3         -0.9589    1.9131    0.0260 H         1 <0>         0.1417
     29 H4          1.1564    3.1705    0.0077 H         1 <0>         0.1450
     30 H5          3.3442   -0.4932   -0.0329 H         1 <0>         0.1411
     31 H6          1.2341   -1.7594   -0.0195 H         1 <0>         0.1294
     32 H7         -0.3968   -2.8377   -0.8993 H         1 <0>         0.1123
     33 H8         -0.3792   -2.8472    0.8806 H         1 <0>         0.1125
     34 H9         -2.8060   -3.3558    0.9020 H         1 <0>         0.1432
     35 H10        -2.8237   -3.3462   -0.8779 H         1 <0>         0.1425
     36 H11        -1.2477   -5.1354   -0.8370 H         1 <0>         0.4298
     37 H12        -3.5640   -5.6317    0.8973 H         1 <0>         0.1431
     38 H13        -3.5817   -5.6222   -0.8826 H         1 <0>         0.1387
     39 H14        -3.7842   -8.4263   -2.1343 H         1 <0>         0.1132
     40 H15        -5.7679   -9.8822   -2.0899 H         1 <0>         0.1177
     41 H16        -2.2384   -7.3839   -2.0134 H         1 <0>         0.3842
     42 H17        -1.2313   -5.1442    0.8106 H         1 <0>         0.4282
@<TRIPOS>BOND
     1    1    6 ar
     2    1    2 ar
     3    1   28 1
     4    2    3 ar
     5    2   29 1
     6    3    4 ar
     7    3   27 1
     8    4    5 ar
     9    4   30 1
    10    5    6 ar
    11    5   31 1
    12    6    7 1
    13    7    8 1
    14    8    9 1
    15    8   32 1
    16    8   33 1
    17    9   10 1
    18    9   34 1
    19    9   35 1
    20   10   11 1
    21   10   36 1
    22   10   42 1
    23   11   12 1
    24   11   37 1
    25   11   38 1
    26   12   13 1
    27   12   14 1
    28   12   26 1
    29   14   19 ar
    30   14   15 ar
    31   15   16 ar
    32   15   39 1
    33   16   17 ar
    34   16   40 1
    35   17   18 ar
    36   17   25 1
    37   18   23 1
    38   18   19 ar
    39   19   20 1
    40   20   21 1
    41   21   22 2
    42   21   23 am
    43   23   24 1
    44   26   41 1
@<TRIPOS>MOLECULE
CHEMBL182708
   66    69     0     0     0
SMALL
USER_CHARGES

@<TRIPOS>ATOM
      1 C1          0.4617    1.0304    0.0143 C.3       1 <0>        -0.1845
      2 C2          0.5715   -0.4872   -0.1460 C.3       1 <0>         0.0274
      3 H1         -0.4216   -0.9320   -0.0836 H         1 <0>         0.1399
      4 C3          1.4554   -1.0549    0.9664 C.3       1 <0>        -0.0580
      5 C4          1.4645   -2.5595    0.8823 C.2       1 <0>        -0.2305
      6 C5          0.6712   -3.4020    1.5631 C.2       1 <0>         0.1121
      7 N1          0.9675   -4.6944    1.2278 N.pl3     1 <0>        -0.5696
      8 H2          0.5269   -5.4792    1.5896 H         1 <0>         0.4293
      9 C6          1.9853   -4.7151    0.2987 C.ar      1 <0>         0.1200
     10 C7          2.3360   -3.3795    0.0376 C.ar      1 <0>        -0.1032
     11 C8          3.3485   -3.0906   -0.8812 C.ar      1 <0>        -0.0881
     12 C9          3.9926   -4.1085   -1.5262 C.ar      1 <0>        -0.1078
     13 C10         3.6505   -5.4301   -1.2773 C.ar      1 <0>        -0.1033
     14 C11         2.6580   -5.7406   -0.3664 C.ar      1 <0>         0.0745
     15 O1          2.3285   -7.0385   -0.1313 O.3       1 <0>        -0.6605
     16 S1          1.2422   -7.5777   -1.0510 S.o2      1 <0>         2.5869
     17 O2          0.8706   -8.8251   -0.4808 O.2       1 <0>        -0.9175
     18 O3          0.2992   -6.5201   -1.1573 O.2       1 <0>        -0.9579
     19 C12         2.0685   -7.8406   -2.6444 C.3       1 <0>        -0.6935
     20 N2          1.1669   -0.7999   -1.4521 N.4       1 <0>        -0.5062
     21 C13         0.2602   -0.3608   -2.5212 C.3       1 <0>        -0.0478
     22 C14         0.8803   -0.6864   -3.8815 C.3       1 <0>         0.1371
     23 H3          1.0404   -1.7617   -3.9598 H         1 <0>         0.1301
     24 C15        -0.0499   -0.2359   -4.9783 C.ar      1 <0>        -0.1192
     25 C16        -0.0074    1.0719   -5.4264 C.ar      1 <0>        -0.1223
     26 C17        -0.8587    1.4891   -6.4328 C.ar      1 <0>        -0.0878
     27 C18        -1.7548    0.6003   -6.9941 C.ar      1 <0>        -0.1043
     28 C19        -1.8000   -0.7135   -6.5465 C.ar      1 <0>         0.1618
     29 C20        -0.9397   -1.1308   -5.5389 C.ar      1 <0>        -0.1323
     30 N3         -2.7061   -1.6159   -7.1127 N.am      1 <0>        -0.6754
     31 C21        -3.0340   -1.5133   -8.4159 C.2       1 <0>         0.5644
     32 O4         -2.4717   -0.6990   -9.1219 O.2       1 <0>        -0.5082
     33 C22        -4.0775   -2.3909   -8.9867 C.ar      1 <0>        -0.1466
     34 C23        -4.7292   -3.3231   -8.1775 C.ar      1 <0>        -0.0863
     35 C24        -5.7022   -4.1391   -8.7165 C.ar      1 <0>        -0.1260
     36 C25        -6.0324   -4.0351  -10.0561 C.ar      1 <0>        -0.0838
     37 C26        -5.3900   -3.1136  -10.8639 C.ar      1 <0>        -0.1238
     38 C27        -4.4196   -2.2872  -10.3361 C.ar      1 <0>        -0.0538
     39 O5          2.1314   -0.0079   -4.0094 O.3       1 <0>        -0.5458
     40 H4          1.4549    1.4752   -0.0482 H         1 <0>         0.0840
     41 H5         -0.1680    1.4348   -0.7782 H         1 <0>         0.0816
     42 H6          0.0200    1.2624    0.9834 H         1 <0>         0.1083
     43 H7          2.4718   -0.6784    0.8507 H         1 <0>         0.0975
     44 H8          1.0622   -0.7475    1.9354 H         1 <0>         0.1216
     45 H9         -0.0880   -3.1035    2.2708 H         1 <0>         0.1859
     46 H10         3.6211   -2.0650   -1.0813 H         1 <0>         0.1301
     47 H11         4.7745   -3.8824   -2.2360 H         1 <0>         0.1496
     48 H12         4.1688   -6.2236   -1.7951 H         1 <0>         0.1528
     49 H13         2.8817   -8.5554   -2.5184 H         1 <0>         0.1398
     50 H14         1.3506   -8.2303   -3.3660 H         1 <0>         0.1423
     51 H15         2.4698   -6.8938   -3.0061 H         1 <0>         0.1311
     52 H16         2.0503   -0.3208   -1.5424 H         1 <0>         0.4260
     53 H17        -0.6941   -0.8783   -2.4237 H         1 <0>         0.1437
     54 H18         0.1000    0.7146   -2.4430 H         1 <0>         0.1407
     55 H19         0.6921    1.7688   -4.9889 H         1 <0>         0.1248
     56 H20        -0.8233    2.5111   -6.7801 H         1 <0>         0.1359
     57 H21        -2.4198    0.9269   -7.7799 H         1 <0>         0.1421
     58 H22        -0.9695   -2.1530   -5.1914 H         1 <0>         0.1305
     59 H23        -3.0984   -2.3157   -6.5675 H         1 <0>         0.4128
     60 H24        -4.4721   -3.4055   -7.1318 H         1 <0>         0.1233
     61 H25        -6.2069   -4.8610   -8.0916 H         1 <0>         0.1328
     62 H26        -6.7948   -4.6764  -10.4732 H         1 <0>         0.1329
     63 H27        -5.6522   -3.0378  -11.9088 H         1 <0>         0.1357
     64 H28        -3.9225   -1.5648  -10.9665 H         1 <0>         0.1389
     65 H29         2.0646    0.9549   -3.9494 H         1 <0>         0.3882
     66 H30         1.3152   -1.7953   -1.5245 H         1 <0>         0.4277
@<TRIPOS>BOND
     1    1    2 1
     2    1   40 1
     3    1   41 1
     4    1   42 1
     5    2    3 1
     6    2    4 1
     7    2   20 1
     8    4    5 1
     9    4   43 1
    10    4   44 1
    11    5   10 1
    12    5    6 2
    13    6    7 1
    14    6   45 1
    15    7    8 1
    16    7    9 1
    17    9   14 ar
    18    9   10 ar
    19   10   11 ar
    20   11   12 ar
    21   11   46 1
    22   12   13 ar
    23   12   47 1
    24   13   14 ar
    25   13   48 1
    26   14   15 1
    27   15   16 1
    28   16   17 2
    29   16   18 2
    30   16   19 1
    31   19   49 1
    32   19   50 1
    33   19   51 1
    34   20   21 1
    35   20   52 1
    36   20   66 1
    37   21   22 1
    38   21   53 1
    39   21   54 1
    40   22   23 1
    41   22   24 1
    42   22   39 1
    43   24   29 ar
    44   24   25 ar
    45   25   26 ar
    46   25   55 1
    47   26   27 ar
    48   26   56 1
    49   27   28 ar
    50   27   57 1
    51   28   29 ar
    52   28   30 1
    53   29   58 1
    54   30   31 am
    55   30   59 1
    56   31   32 2
    57   31   33 1
    58   33   38 ar
    59   33   34 ar
    60   34   35 ar
    61   34   60 1
    62   35   36 ar
    63   35   61 1
    64   36   37 ar
    65   36   62 1
    66   37   38 ar
    67   37   63 1
    68   38   64 1
    69   39   65 1
@<TRIPOS>MOLECULE
CHEMBL561348
   60    62     0     0     0
SMALL
USER_CHARGES

@<TRIPOS>ATOM
      1 C1          8.6380    1.3243   -2.7042 C.ar      1 <0>        -0.1037
      2 C2          7.5296    1.4174   -1.8828 C.ar      1 <0>        -0.1002
      3 C3          6.9347    2.6450   -1.6604 C.ar      1 <0>        -0.0643
      4 C4          7.4474    3.7805   -2.2594 C.ar      1 <0>        -0.0959
      5 C5          8.5562    3.6880   -3.0812 C.ar      1 <0>        -0.0323
      6 C6          9.1516    2.4588   -3.3032 C.ar      1 <0>        -0.1054
      7 Cl1         9.2003    5.1134   -3.8342 Cl        1 <0>        -0.0640
      8 C7          5.7267    2.7456   -0.7650 C.3       1 <0>        -0.1002
      9 C8          6.1721    2.9869    0.6543 C.2       1 <0>         0.5180
     10 O1          7.3541    3.0692    0.9133 O.2       1 <0>        -0.5049
     11 N1          5.2569    3.1114    1.6358 N.am      1 <0>        -0.6796
     12 C9          5.6709    3.2386    2.9664 C.ar      1 <0>         0.1658
     13 C10         4.9235    2.6633    3.9857 C.ar      1 <0>        -0.1425
     14 C11         5.3348    2.7907    5.2980 C.ar      1 <0>        -0.0877
     15 C12         6.4894    3.4901    5.5974 C.ar      1 <0>        -0.1275
     16 C13         7.2356    4.0645    4.5848 C.ar      1 <0>        -0.0879
     17 C14         6.8331    3.9355    3.2699 C.ar      1 <0>        -0.1184
     18 C15         6.9353    3.6271    7.0304 C.3       1 <0>        -0.0973
     19 C16         7.8540    2.4585    7.3926 C.3       1 <0>        -0.0075
     20 N2          8.2886    2.5921    8.7895 N.4       1 <0>        -0.5036
     21 C17         9.1706    1.4700    9.1373 C.3       1 <0>        -0.0419
     22 C18         9.6233    1.6091   10.5922 C.3       1 <0>         0.0858
     23 H1          8.7513    1.6021   11.2462 H         1 <0>         0.1362
     24 C19        10.5420    0.4405   10.9544 C.3       1 <0>         0.0288
     25 O2         10.8710    0.5062   12.3435 O.3       1 <0>        -0.3011
     26 C20        11.6862   -0.4667   12.8314 C.ar      1 <0>         0.1087
     27 C21        12.1629   -1.4595   11.9883 C.ar      1 <0>        -0.1913
     28 C22        12.9910   -2.4477   12.4839 C.ar      1 <0>        -0.1061
     29 C23        13.3461   -2.4471   13.8247 C.ar      1 <0>         0.0804
     30 C24        12.8701   -1.4538   14.6677 C.ar      1 <0>        -0.1027
     31 C25        12.0455   -0.4631   14.1711 C.ar      1 <0>        -0.1260
     32 O3         14.1605   -3.4205   14.3128 O.3       1 <0>        -0.4957
     33 O4         10.3311    2.8398   10.7553 O.3       1 <0>        -0.5434
     34 H2          9.1051    0.3655   -2.8740 H         1 <0>         0.1350
     35 H3          7.1283    0.5304   -1.4152 H         1 <0>         0.1268
     36 H4          6.9820    4.7396   -2.0861 H         1 <0>         0.1315
     37 H5         10.0173    2.3860   -3.9448 H         1 <0>         0.1359
     38 H6          5.0983    3.5731   -1.0943 H         1 <0>         0.1132
     39 H7          5.1593    1.8163   -0.8147 H         1 <0>         0.1140
     40 H8          4.3112    3.1128    1.4199 H         1 <0>         0.4168
     41 H9          4.0214    2.1172    3.7525 H         1 <0>         0.1327
     42 H10         4.7537    2.3438    6.0911 H         1 <0>         0.1287
     43 H11         8.1368    4.6105    4.8219 H         1 <0>         0.1276
     44 H12         7.4191    4.3800    2.4790 H         1 <0>         0.1452
     45 H13         7.4752    4.5658    7.1548 H         1 <0>         0.0963
     46 H14         6.0633    3.6201    7.6844 H         1 <0>         0.0963
     47 H15         7.3141    1.5198    7.2683 H         1 <0>         0.1343
     48 H16         8.7259    2.4655    6.7386 H         1 <0>         0.1339
     49 H17         8.7883    3.4610    8.9047 H         1 <0>         0.4336
     50 H18         8.6307    0.5314    9.0130 H         1 <0>         0.1471
     51 H19        10.0426    1.4771    8.4833 H         1 <0>         0.1399
     52 H20        10.0326   -0.5003   10.7458 H         1 <0>         0.0820
     53 H21        11.4548    0.4987   10.3616 H         1 <0>         0.0769
     54 H22        11.8864   -1.4600   10.9443 H         1 <0>         0.1284
     55 H23        13.3616   -3.2212   11.8276 H         1 <0>         0.1352
     56 H24        13.1463   -1.4535   15.7117 H         1 <0>         0.1418
     57 H25        11.6779    0.3125   14.8266 H         1 <0>         0.1388
     58 H26        15.1021   -3.2052   14.2668 H         1 <0>         0.3940
     59 H27        11.1207    2.9156   10.2023 H         1 <0>         0.3902
     60 H28         7.4814    2.5855    9.3950 H         1 <0>         0.4309
@<TRIPOS>BOND
     1    1    6 ar
     2    1    2 ar
     3    1   34 1
     4    2    3 ar
     5    2   35 1
     6    3    4 ar
     7    3    8 1
     8    4    5 ar
     9    4   36 1
    10    5    6 ar
    11    5    7 1
    12    6   37 1
    13    8    9 1
    14    8   38 1
    15    8   39 1
    16    9   10 2
    17    9   11 am
    18   11   12 1
    19   11   40 1
    20   12   17 ar
    21   12   13 ar
    22   13   14 ar
    23   13   41 1
    24   14   15 ar
    25   14   42 1
    26   15   16 ar
    27   15   18 1
    28   16   17 ar
    29   16   43 1
    30   17   44 1
    31   18   19 1
    32   18   45 1
    33   18   46 1
    34   19   20 1
    35   19   47 1
    36   19   48 1
    37   20   21 1
    38   20   49 1
    39   20   60 1
    40   21   22 1
    41   21   50 1
    42   21   51 1
    43   22   23 1
    44   22   24 1
    45   22   33 1
    46   24   25 1
    47   24   52 1
    48   24   53 1
    49   25   26 1
    50   26   31 ar
    51   26   27 ar
    52   27   28 ar
    53   27   54 1
    54   28   29 ar
    55   28   55 1
    56   29   30 ar
    57   29   32 1
    58   30   31 ar
    59   30   56 1
    60   31   57 1
    61   32   58 1
    62   33   59 1
@<TRIPOS>MOLECULE
CHEMBL210309
   43    44     0     0     0
SMALL
USER_CHARGES

@<TRIPOS>ATOM
      1 C1         -0.0187    1.5258    0.0104 C.3       1 <0>        -0.1788
      2 C2          0.0021   -0.0041    0.0020 C.3       1 <0>         0.0550
      3 C3          0.7421   -0.5109    1.2415 C.3       1 <0>        -0.1795
      4 C4         -1.4333   -0.5336    0.0129 C.3       1 <0>        -0.1779
      5 N1          0.6897   -0.4778   -1.2066 N.4       1 <0>        -0.4984
      6 C5          2.0678    0.0307   -1.2170 C.3       1 <0>        -0.0517
      7 C6          2.7840   -0.4628   -2.4758 C.3       1 <0>         0.0874
      8 C7          4.2531   -0.0383   -2.4263 C.3       1 <0>         0.0274
      9 O1          4.9483   -0.5972   -3.5427 O.3       1 <0>        -0.2829
     10 C8          6.2723   -0.3150   -3.6486 C.ar      1 <0>         0.1812
     11 C9          6.8921    0.4750   -2.7006 C.ar      1 <0>        -0.2350
     12 C10         8.2446    0.7663   -2.8052 C.ar      1 <0>        -0.0422
     13 C11         8.9915    0.2738   -3.8531 C.ar      1 <0>        -0.1549
     14 C12         8.3920   -0.5250   -4.8219 C.ar      1 <0>         0.1608
     15 C13         7.0212   -0.8297   -4.7203 C.ar      1 <0>        -0.1095
     16 C14         6.6961   -1.6527   -5.8252 C.2       1 <0>        -0.0963
     17 C15         7.8306   -1.8358   -6.5534 C.2       1 <0>         0.1745
     18 N2          8.8684   -1.1450   -5.9549 N.pl3     1 <0>        -0.5577
     19 H1          9.7836   -1.1117   -6.2747 H         1 <0>         0.4347
     20 C16         7.9312   -2.6094   -7.7543 C.1       1 <0>         0.2481
     21 N3          8.0110   -3.2231   -8.7069 N.1       1 <0>        -0.3473
     22 I1          4.8071   -2.4473   -6.2602 I         1 <0>         0.0231
     23 O2          2.1628    0.1050   -3.6307 O.3       1 <0>        -0.5381
     24 H2          1.0039    1.9031    0.0027 H         1 <0>         0.0809
     25 H3         -0.5459    1.8868   -0.8726 H         1 <0>         0.0835
     26 H4         -0.5289    1.8773    0.9072 H         1 <0>         0.1068
     27 H5          0.2319   -0.1594    2.1383 H         1 <0>         0.1069
     28 H6          0.7568   -1.6008    1.2356 H         1 <0>         0.0837
     29 H7          1.7647   -0.1336    1.2338 H         1 <0>         0.0814
     30 H8         -1.9605   -0.1726   -0.8702 H         1 <0>         0.0833
     31 H9         -1.4185   -1.6235    0.0069 H         1 <0>         0.0832
     32 H10        -1.9435   -0.1821    0.9097 H         1 <0>         0.1074
     33 H11         0.7033   -1.4867   -1.2121 H         1 <0>         0.4286
     34 H12         2.0530    1.1205   -1.2110 H         1 <0>         0.1418
     35 H13         2.5950   -0.3304   -0.3340 H         1 <0>         0.1472
     36 H14         2.7213   -1.5498   -2.5270 H         1 <0>         0.1346
     37 H15         4.3186    1.0490   -2.4647 H         1 <0>         0.0795
     38 H16         4.7039   -0.3970   -1.5010 H         1 <0>         0.0832
     39 H17         6.3206    0.8687   -1.8731 H         1 <0>         0.1313
     40 H18         8.7169    1.3859   -2.0573 H         1 <0>         0.1385
     41 H19        10.0434    0.5084   -3.9229 H         1 <0>         0.1352
     42 H20         2.1814    1.0716   -3.6522 H         1 <0>         0.3888
     43 H21         0.2017   -0.1436   -2.0240 H         1 <0>         0.4323
@<TRIPOS>BOND
     1    1    2 1
     2    1   24 1
     3    1   25 1
     4    1   26 1
     5    2    3 1
     6    2    4 1
     7    2    5 1
     8    3   27 1
     9    3   28 1
    10    3   29 1
    11    4   30 1
    12    4   31 1
    13    4   32 1
    14    5    6 1
    15    5   33 1
    16    5   43 1
    17    6    7 1
    18    6   34 1
    19    6   35 1
    20    7    8 1
    21    7   23 1
    22    7   36 1
    23    8    9 1
    24    8   37 1
    25    8   38 1
    26    9   10 1
    27   10   15 ar
    28   10   11 ar
    29   11   12 ar
    30   11   39 1
    31   12   13 ar
    32   12   40 1
    33   13   14 ar
    34   13   41 1
    35   14   18 1
    36   14   15 ar
    37   15   16 1
    38   16   17 2
    39   16   22 1
    40   17   18 1
    41   17   20 1
    42   18   19 1
    43   20   21 3
    44   23   42 1
@<TRIPOS>MOLECULE
CHEMBL210309__1
   42    43     0     0     0
SMALL
USER_CHARGES

@<TRIPOS>ATOM
      1 C1         -0.0187    1.5258    0.0104 C.3       1 <0>        -0.1784
      2 C2          0.0021   -0.0041    0.0020 C.3       1 <0>         0.0547
      3 C3          0.7421   -0.5109    1.2415 C.3       1 <0>        -0.1793
      4 C4         -1.4333   -0.5336    0.0129 C.3       1 <0>        -0.1765
      5 N1          0.6897   -0.4778   -1.2066 N.4       1 <0>        -0.4982
      6 C5          2.0678    0.0307   -1.2170 C.3       1 <0>        -0.0508
      7 C6          2.7840   -0.4628   -2.4758 C.3       1 <0>         0.0882
      8 C7          4.2531   -0.0383   -2.4263 C.3       1 <0>         0.0321
      9 O1          4.9483   -0.5972   -3.5427 O.3       1 <0>        -0.2879
     10 C8          6.2723   -0.3150   -3.6486 C.ar      1 <0>         0.1488
     11 C9          6.8921    0.4750   -2.7006 C.ar      1 <0>        -0.2620
     12 C10         8.2446    0.7663   -2.8052 C.ar      1 <0>        -0.1153
     13 C11         8.9915    0.2738   -3.8531 C.ar      1 <0>        -0.1116
     14 C12         8.3920   -0.5250   -4.8219 C.ar      1 <0>         0.0823
     15 C13         7.0212   -0.8297   -4.7203 C.ar      1 <0>        -0.1296
     16 C14         6.6961   -1.6527   -5.8252 C.2       1 <0>        -0.1767
     17 C15         7.8306   -1.8358   -6.5534 C.2       1 <0>         0.1105
     18 N2          8.8684   -1.1450   -5.9549 N.2       1 <0>        -0.5185
     19 C16         7.9312   -2.6094   -7.7543 C.1       1 <0>         0.3075
     20 N3          8.0110   -3.2231   -8.7069 N.1       1 <0>        -0.4487
     21 I1          4.8071   -2.4473   -6.2602 I         1 <0>        -0.0784
     22 O2          2.1628    0.1050   -3.6307 O.3       1 <0>        -0.5378
     23 H1          1.0039    1.9031    0.0027 H         1 <0>         0.0823
     24 H2         -0.5459    1.8868   -0.8726 H         1 <0>         0.0827
     25 H3         -0.5289    1.8773    0.9072 H         1 <0>         0.1042
     26 H4          0.2319   -0.1594    2.1383 H         1 <0>         0.1043
     27 H5          0.7568   -1.6008    1.2356 H         1 <0>         0.0831
     28 H6          1.7647   -0.1336    1.2338 H         1 <0>         0.0830
     29 H7         -1.9605   -0.1726   -0.8702 H         1 <0>         0.0823
     30 H8         -1.4185   -1.6235    0.0069 H         1 <0>         0.0823
     31 H9         -1.9435   -0.1821    0.9097 H         1 <0>         0.1048
     32 H10         0.7033   -1.4867   -1.2121 H         1 <0>         0.4280
     33 H11         2.0530    1.1205   -1.2110 H         1 <0>         0.1395
     34 H12         2.5950   -0.3304   -0.3340 H         1 <0>         0.1453
     35 H13         2.7213   -1.5498   -2.5270 H         1 <0>         0.1312
     36 H14         4.3186    1.0490   -2.4647 H         1 <0>         0.0673
     37 H15         4.7039   -0.3970   -1.5010 H         1 <0>         0.0706
     38 H16         6.3206    0.8687   -1.8731 H         1 <0>         0.1021
     39 H17         8.7169    1.3859   -2.0573 H         1 <0>         0.1076
     40 H18        10.0434    0.5084   -3.9229 H         1 <0>         0.1084
     41 H19         2.1814    1.0716   -3.6522 H         1 <0>         0.3851
     42 H20         0.2017   -0.1436   -2.0240 H         1 <0>         0.4314
@<TRIPOS>BOND
     1    1    2 1
     2    1   23 1
     3    1   24 1
     4    1   25 1
     5    2    3 1
     6    2    4 1
     7    2    5 1
     8    3   26 1
     9    3   27 1
    10    3   28 1
    11    4   29 1
    12    4   30 1
    13    4   31 1
    14    5    6 1
    15    5   32 1
    16    5   42 1
    17    6    7 1
    18    6   33 1
    19    6   34 1
    20    7    8 1
    21    7   22 1
    22    7   35 1
    23    8    9 1
    24    8   36 1
    25    8   37 1
    26    9   10 1
    27   10   15 ar
    28   10   11 ar
    29   11   12 ar
    30   11   38 1
    31   12   13 ar
    32   12   39 1
    33   13   14 ar
    34   13   40 1
    35   14   18 1
    36   14   15 ar
    37   15   16 1
    38   16   17 2
    39   16   21 1
    40   17   18 1
    41   17   19 1
    42   19   20 3
    43   22   41 1
@<TRIPOS>MOLECULE
CHEMBL210309__2
   43    44     0     0     0
SMALL
USER_CHARGES

@<TRIPOS>ATOM
      1 C1         -0.0187    1.5258    0.0104 C.3       1 <0>        -0.1795
      2 C2          0.0021   -0.0041    0.0020 C.3       1 <0>         0.0551
      3 C3          0.7421   -0.5109    1.2415 C.3       1 <0>        -0.1789
      4 C4         -1.4333   -0.5336    0.0129 C.3       1 <0>        -0.1779
      5 N1          0.6897   -0.4778   -1.2066 N.4       1 <0>        -0.4978
      6 C5          2.0678    0.0307   -1.2170 C.3       1 <0>        -0.0519
      7 C6          2.7840   -0.4628   -2.4758 C.3       1 <0>         0.0872
      8 C7          4.2193    0.0668   -2.4867 C.3       1 <0>         0.0274
      9 O1          4.8516   -0.2959   -3.7158 O.3       1 <0>        -0.2829
     10 C8          6.1391    0.1004   -3.8872 C.ar      1 <0>         0.1812
     11 C9          6.7833    0.8157   -2.8972 C.ar      1 <0>        -0.2349
     12 C10         8.0985    1.2230   -3.0683 C.ar      1 <0>        -0.0422
     13 C11         8.7836    0.9218   -4.2253 C.ar      1 <0>        -0.1550
     14 C12         8.1583    0.2018   -5.2385 C.ar      1 <0>         0.1608
     15 C13         6.8255   -0.2199   -5.0706 C.ar      1 <0>        -0.1095
     16 C14         6.4629   -0.9257   -6.2428 C.2       1 <0>        -0.0963
     17 C15         7.5398   -0.9292   -7.0743 C.2       1 <0>         0.1745
     18 N2          8.5759   -0.2366   -6.4748 N.pl3     1 <0>        -0.5577
     19 H1          9.4554   -0.0929   -6.8578 H         1 <0>         0.4346
     20 C16         7.5884   -1.5410   -8.3681 C.1       1 <0>         0.2482
     21 N3          7.6270   -2.0263   -9.3945 N.1       1 <0>        -0.3473
     22 I1          4.6021   -1.8078   -6.6278 I         1 <0>         0.0231
     23 O2          2.8033   -1.8916   -2.4837 O.3       1 <0>        -0.5387
     24 H2          1.0039    1.9031    0.0027 H         1 <0>         0.0815
     25 H3         -0.5459    1.8868   -0.8726 H         1 <0>         0.0837
     26 H4         -0.5289    1.8773    0.9072 H         1 <0>         0.1069
     27 H5          0.2319   -0.1594    2.1383 H         1 <0>         0.1068
     28 H6          0.7568   -1.6008    1.2356 H         1 <0>         0.0834
     29 H7          1.7647   -0.1336    1.2338 H         1 <0>         0.0809
     30 H8         -1.9605   -0.1726   -0.8702 H         1 <0>         0.0833
     31 H9         -1.4185   -1.6235    0.0069 H         1 <0>         0.0833
     32 H10        -1.9435   -0.1821    0.9097 H         1 <0>         0.1074
     33 H11         0.7033   -1.4867   -1.2121 H         1 <0>         0.4319
     34 H12         2.0530    1.1205   -1.2110 H         1 <0>         0.1477
     35 H13         2.5950   -0.3304   -0.3340 H         1 <0>         0.1413
     36 H14         2.2568   -0.1017   -3.3589 H         1 <0>         0.1355
     37 H15         4.2068    1.1525   -2.3912 H         1 <0>         0.0835
     38 H16         4.7722   -0.3649   -1.6524 H         1 <0>         0.0792
     39 H17         6.2602    1.0598   -1.9844 H         1 <0>         0.1312
     40 H18         8.5905    1.7825   -2.2865 H         1 <0>         0.1385
     41 H19         9.8069    1.2451   -4.3459 H         1 <0>         0.1352
     42 H20         3.2576   -2.2830   -1.7250 H         1 <0>         0.3883
     43 H21         0.2017   -0.1436   -2.0240 H         1 <0>         0.4289
@<TRIPOS>BOND
     1    1    2 1
     2    1   24 1
     3    1   25 1
     4    1   26 1
     5    2    3 1
     6    2    4 1
     7    2    5 1
     8    3   27 1
     9    3   28 1
    10    3   29 1
    11    4   30 1
    12    4   31 1
    13    4   32 1
    14    5    6 1
    15    5   33 1
    16    5   43 1
    17    6    7 1
    18    6   34 1
    19    6   35 1
    20    7    8 1
    21    7   23 1
    22    7   36 1
    23    8    9 1
    24    8   37 1
    25    8   38 1
    26    9   10 1
    27   10   15 ar
    28   10   11 ar
    29   11   12 ar
    30   11   39 1
    31   12   13 ar
    32   12   40 1
    33   13   14 ar
    34   13   41 1
    35   14   18 1
    36   14   15 ar
    37   15   16 1
    38   16   17 2
    39   16   22 1
    40   17   18 1
    41   17   20 1
    42   18   19 1
    43   20   21 3
    44   23   42 1
@<TRIPOS>MOLECULE
CHEMBL210309__3
   42    43     0     0     0
SMALL
USER_CHARGES

@<TRIPOS>ATOM
      1 C1         -0.0187    1.5258    0.0104 C.3       1 <0>        -0.1793
      2 C2          0.0021   -0.0041    0.0020 C.3       1 <0>         0.0547
      3 C3          0.7421   -0.5109    1.2415 C.3       1 <0>        -0.1786
      4 C4         -1.4333   -0.5336    0.0129 C.3       1 <0>        -0.1764
      5 N1          0.6897   -0.4778   -1.2066 N.4       1 <0>        -0.4976
      6 C5          2.0678    0.0307   -1.2170 C.3       1 <0>        -0.0510
      7 C6          2.7840   -0.4628   -2.4758 C.3       1 <0>         0.0880
      8 C7          4.2193    0.0668   -2.4867 C.3       1 <0>         0.0321
      9 O1          4.8516   -0.2959   -3.7158 O.3       1 <0>        -0.2879
     10 C8          6.1391    0.1004   -3.8872 C.ar      1 <0>         0.1488
     11 C9          6.7833    0.8157   -2.8972 C.ar      1 <0>        -0.2619
     12 C10         8.0985    1.2230   -3.0683 C.ar      1 <0>        -0.1153
     13 C11         8.7836    0.9218   -4.2253 C.ar      1 <0>        -0.1116
     14 C12         8.1583    0.2018   -5.2385 C.ar      1 <0>         0.0822
     15 C13         6.8255   -0.2199   -5.0706 C.ar      1 <0>        -0.1296
     16 C14         6.4629   -0.9257   -6.2428 C.2       1 <0>        -0.1767
     17 C15         7.5398   -0.9292   -7.0743 C.2       1 <0>         0.1105
     18 N2          8.5759   -0.2366   -6.4748 N.2       1 <0>        -0.5185
     19 C16         7.5884   -1.5410   -8.3681 C.1       1 <0>         0.3076
     20 N3          7.6270   -2.0263   -9.3945 N.1       1 <0>        -0.4487
     21 I1          4.6021   -1.8078   -6.6278 I         1 <0>        -0.0783
     22 O2          2.8033   -1.8916   -2.4837 O.3       1 <0>        -0.5385
     23 H1          1.0039    1.9031    0.0027 H         1 <0>         0.0830
     24 H2         -0.5459    1.8868   -0.8726 H         1 <0>         0.0830
     25 H3         -0.5289    1.8773    0.9072 H         1 <0>         0.1043
     26 H4          0.2319   -0.1594    2.1383 H         1 <0>         0.1042
     27 H5          0.7568   -1.6008    1.2356 H         1 <0>         0.0826
     28 H6          1.7647   -0.1336    1.2338 H         1 <0>         0.0825
     29 H7         -1.9605   -0.1726   -0.8702 H         1 <0>         0.0823
     30 H8         -1.4185   -1.6235    0.0069 H         1 <0>         0.0823
     31 H9         -1.9435   -0.1821    0.9097 H         1 <0>         0.1048
     32 H10         0.7033   -1.4867   -1.2121 H         1 <0>         0.4310
     33 H11         2.0530    1.1205   -1.2110 H         1 <0>         0.1456
     34 H12         2.5950   -0.3304   -0.3340 H         1 <0>         0.1391
     35 H13         2.2568   -0.1017   -3.3589 H         1 <0>         0.1322
     36 H14         4.2068    1.1525   -2.3912 H         1 <0>         0.0709
     37 H15         4.7722   -0.3649   -1.6524 H         1 <0>         0.0670
     38 H16         6.2602    1.0598   -1.9844 H         1 <0>         0.1021
     39 H17         8.5905    1.7825   -2.2865 H         1 <0>         0.1076
     40 H18         9.8069    1.2451   -4.3459 H         1 <0>         0.1084
     41 H19         3.2576   -2.2830   -1.7250 H         1 <0>         0.3847
     42 H20         0.2017   -0.1436   -2.0240 H         1 <0>         0.4282
@<TRIPOS>BOND
     1    1    2 1
     2    1   23 1
     3    1   24 1
     4    1   25 1
     5    2    3 1
     6    2    4 1
     7    2    5 1
     8    3   26 1
     9    3   27 1
    10    3   28 1
    11    4   29 1
    12    4   30 1
    13    4   31 1
    14    5    6 1
    15    5   32 1
    16    5   42 1
    17    6    7 1
    18    6   33 1
    19    6   34 1
    20    7    8 1
    21    7   22 1
    22    7   35 1
    23    8    9 1
    24    8   36 1
    25    8   37 1
    26    9   10 1
    27   10   15 ar
    28   10   11 ar
    29   11   12 ar
    30   11   38 1
    31   12   13 ar
    32   12   39 1
    33   13   14 ar
    34   13   40 1
    35   14   18 1
    36   14   15 ar
    37   15   16 1
    38   16   17 2
    39   16   21 1
    40   17   18 1
    41   17   19 1
    42   19   20 3
    43   22   41 1
@<TRIPOS>MOLECULE
CHEMBL102194
   88    90     0     0     0
SMALL
USER_CHARGES

@<TRIPOS>ATOM
      1 C1          2.4642    3.4217   -9.7344 C.3       1 <0>        -0.1553
      2 C2          2.6042    1.9908  -10.2578 C.3       1 <0>        -0.1260
      3 C3          2.7102    1.0239   -9.0768 C.3       1 <0>        -0.1217
      4 C4          2.8502   -0.4070   -9.6001 C.3       1 <0>        -0.1212
      5 C5          2.9562   -1.3739   -8.4192 C.3       1 <0>        -0.1201
      6 C6          3.0962   -2.8048   -8.9425 C.3       1 <0>        -0.1161
      7 C7          3.2021   -3.7717   -7.7615 C.3       1 <0>        -0.1334
      8 C8          3.3421   -5.2026   -8.2849 C.3       1 <0>         0.1358
      9 N1          3.4436   -6.1284   -7.1540 N.am      1 <0>        -0.7370
     10 C9          3.5750   -7.4513   -7.3759 C.2       1 <0>         0.7055
     11 O1          3.6093   -7.8763   -8.5145 O.2       1 <0>        -0.5720
     12 N2          3.6683   -8.3030   -6.3355 N.am      1 <0>        -0.6900
     13 C10         3.7073   -9.6834   -6.5627 C.ar      1 <0>         0.2275
     14 C11         3.0954  -10.5530   -5.6695 C.ar      1 <0>        -0.1683
     15 C12         3.1352  -11.9148   -5.8967 C.ar      1 <0>         0.0005
     16 C13         3.7835  -12.4124   -7.0122 C.ar      1 <0>        -0.6993
     17 C14         4.3942  -11.5491   -7.9032 C.ar      1 <0>        -0.0020
     18 C15         4.3530  -10.1860   -7.6847 C.ar      1 <0>        -0.1414
     19 S1          3.8321  -14.1503   -7.2985 S.o2      1 <0>         2.6896
     20 O2          4.9657  -14.3952   -8.1195 O.2       1 <0>        -0.9472
     21 O3          3.6579  -14.7752   -6.0342 O.2       1 <0>        -0.9469
     22 N3          2.5000  -14.5348   -8.2040 N.pl3     1 <0>        -0.9998
     23 C16         1.2322  -14.8956   -7.5549 C.3       1 <0>         0.1182
     24 C17         0.1206  -14.0014   -8.1128 C.3       1 <0>        -0.1286
     25 C18         0.0993  -14.1129   -9.6390 C.3       1 <0>        -0.1125
     26 C19         1.4368  -13.6315  -10.2060 C.3       1 <0>        -0.1499
     27 C20         2.5617  -14.5157   -9.6718 C.3       1 <0>         0.1202
     28 C21        -1.0322  -13.2477  -10.1976 C.3       1 <0>        -0.0072
     29 N4         -1.1298  -13.4469  -11.6497 N.4       1 <0>        -0.5049
     30 C22        -2.2161  -12.6162  -12.1861 C.3       1 <0>        -0.0423
     31 C23        -2.3177  -12.8237  -13.6985 C.3       1 <0>         0.0855
     32 H1         -2.5253  -13.8731  -13.9082 H         1 <0>         0.1366
     33 C24        -3.4492  -11.9585  -14.2571 C.3       1 <0>         0.0292
     34 O4         -3.6209  -12.2386  -15.6478 O.3       1 <0>        -0.3008
     35 C25        -4.5940  -11.5489  -16.3010 C.ar      1 <0>         0.1089
     36 C26        -5.3625  -10.6185  -15.6173 C.ar      1 <0>        -0.1914
     37 C27        -6.3510   -9.9179  -16.2807 C.ar      1 <0>        -0.1062
     38 C28        -6.5747  -10.1446  -17.6306 C.ar      1 <0>         0.0805
     39 C29        -5.8056  -11.0743  -18.3145 C.ar      1 <0>        -0.1025
     40 C30        -4.8142  -11.7718  -17.6521 C.ar      1 <0>        -0.1257
     41 O5         -7.5484   -9.4555  -18.2835 O.3       1 <0>        -0.4957
     42 O6         -1.0837  -12.4500  -14.3145 O.3       1 <0>        -0.5430
     43 H2          1.5666    3.4979   -9.1208 H         1 <0>         0.0535
     44 H3          3.3376    3.6760   -9.1339 H         1 <0>         0.0541
     45 H4          2.3887    4.1105  -10.5758 H         1 <0>         0.0547
     46 H5          1.7308    1.7365  -10.8583 H         1 <0>         0.0600
     47 H6          3.5018    1.9146  -10.8715 H         1 <0>         0.0608
     48 H7          3.5836    1.2782   -8.4763 H         1 <0>         0.0616
     49 H8          1.8126    1.1001   -8.4631 H         1 <0>         0.0608
     50 H9          1.9768   -0.6613  -10.2007 H         1 <0>         0.0609
     51 H10         3.7478   -0.4832  -10.2138 H         1 <0>         0.0622
     52 H11         3.8295   -1.1196   -7.8186 H         1 <0>         0.0633
     53 H12         2.0586   -1.2977   -7.8055 H         1 <0>         0.0621
     54 H13         2.2228   -3.0591   -9.5430 H         1 <0>         0.0651
     55 H14         3.9938   -2.8810   -9.5562 H         1 <0>         0.0671
     56 H15         4.0755   -3.5174   -7.1610 H         1 <0>         0.0720
     57 H16         2.3045   -3.6955   -7.1478 H         1 <0>         0.0704
     58 H17         2.4688   -5.4569   -8.8854 H         1 <0>         0.0684
     59 H18         4.2397   -5.2788   -8.8985 H         1 <0>         0.0712
     60 H19         3.4163   -5.7893   -6.2456 H         1 <0>         0.4014
     61 H20         3.7085   -7.9593   -5.4294 H         1 <0>         0.4139
     62 H21         2.5892  -10.1650   -4.7980 H         1 <0>         0.1375
     63 H22         2.6599  -12.5917   -5.2023 H         1 <0>         0.1436
     64 H23         4.9000  -11.9409   -8.7733 H         1 <0>         0.1416
     65 H24         4.8260   -9.5119   -8.3834 H         1 <0>         0.1521
     66 H25         0.9997  -15.9401   -7.7624 H         1 <0>         0.0831
     67 H26         1.3169  -14.7449   -6.4787 H         1 <0>         0.1027
     68 H27        -0.8405  -14.3223   -7.7111 H         1 <0>         0.0901
     69 H28         0.3079  -12.9665   -7.8262 H         1 <0>         0.0815
     70 H29        -0.0634  -15.1521   -9.9249 H         1 <0>         0.1017
     71 H30         1.4124  -13.6893  -11.2942 H         1 <0>         0.0735
     72 H31         1.6117  -12.6002   -9.8998 H         1 <0>         0.0869
     73 H32         3.5232  -14.1144   -9.9920 H         1 <0>         0.1024
     74 H33         2.4400  -15.5285  -10.0559 H         1 <0>         0.0826
     75 H34        -1.9735  -13.5328   -9.7277 H         1 <0>         0.1367
     76 H35        -0.8246  -12.1984   -9.9879 H         1 <0>         0.1335
     77 H36        -0.2584  -13.1830  -12.0847 H         1 <0>         0.4319
     78 H37        -3.1574  -12.9014  -11.7162 H         1 <0>         0.1478
     79 H38        -2.0086  -11.5669  -11.9764 H         1 <0>         0.1395
     80 H39        -4.3739  -12.1815  -13.7247 H         1 <0>         0.0819
     81 H40        -3.1998  -10.9055  -14.1266 H         1 <0>         0.0766
     82 H41        -5.1883  -10.4420  -14.5662 H         1 <0>         0.1282
     83 H42        -6.9498   -9.1939  -15.7482 H         1 <0>         0.1351
     84 H43        -5.9800  -11.2511  -19.3656 H         1 <0>         0.1419
     85 H44        -4.2129  -12.4931  -18.1855 H         1 <0>         0.1389
     86 H45        -7.2469   -8.6243  -18.6751 H         1 <0>         0.3940
     87 H46        -0.8353  -11.5268  -14.1692 H         1 <0>         0.3903
     88 H47        -1.3219  -14.4183  -11.8438 H         1 <0>         0.4313
@<TRIPOS>BOND
     1    1    2 1
     2    1   43 1
     3    1   44 1
     4    1   45 1
     5    2    3 1
     6    2   46 1
     7    2   47 1
     8    3    4 1
     9    3   48 1
    10    3   49 1
    11    4    5 1
    12    4   50 1
    13    4   51 1
    14    5    6 1
    15    5   52 1
    16    5   53 1
    17    6    7 1
    18    6   54 1
    19    6   55 1
    20    7    8 1
    21    7   56 1
    22    7   57 1
    23    8    9 1
    24    8   58 1
    25    8   59 1
    26    9   10 am
    27    9   60 1
    28   10   11 2
    29   10   12 am
    30   12   13 1
    31   12   61 1
    32   13   18 ar
    33   13   14 ar
    34   14   15 ar
    35   14   62 1
    36   15   16 ar
    37   15   63 1
    38   16   17 ar
    39   16   19 1
    40   17   18 ar
    41   17   64 1
    42   18   65 1
    43   19   20 2
    44   19   21 2
    45   19   22 1
    46   22   27 1
    47   22   23 1
    48   23   24 1
    49   23   66 1
    50   23   67 1
    51   24   25 1
    52   24   68 1
    53   24   69 1
    54   25   26 1
    55   25   28 1
    56   25   70 1
    57   26   27 1
    58   26   71 1
    59   26   72 1
    60   27   73 1
    61   27   74 1
    62   28   29 1
    63   28   75 1
    64   28   76 1
    65   29   30 1
    66   29   77 1
    67   29   88 1
    68   30   31 1
    69   30   78 1
    70   30   79 1
    71   31   32 1
    72   31   33 1
    73   31   42 1
    74   33   34 1
    75   33   80 1
    76   33   81 1
    77   34   35 1
    78   35   40 ar
    79   35   36 ar
    80   36   37 ar
    81   36   82 1
    82   37   38 ar
    83   37   83 1
    84   38   39 ar
    85   38   41 1
    86   39   40 ar
    87   39   84 1
    88   40   85 1
    89   41   86 1
    90   42   87 1
@<TRIPOS>MOLECULE
CHEMBL386016
   69    72     0     0     0
SMALL
USER_CHARGES

@<TRIPOS>ATOM
      1 C1          0.2942    1.2582    0.2970 C.3       1 <0>        -0.1821
      2 C2          0.0665   -0.2460    0.1342 C.3       1 <0>         0.0598
      3 C3          0.6219   -0.9810    1.3557 C.3       1 <0>        -0.1816
      4 C4         -1.4328   -0.5243    0.0095 C.3       1 <0>        -0.0906
      5 C5         -2.1383   -0.0409    1.2503 C.ar      1 <0>        -0.0989
      6 C6         -2.2992   -0.8915    2.3284 C.ar      1 <0>        -0.0945
      7 C7         -2.9460   -0.4510    3.4668 C.ar      1 <0>        -0.1111
      8 C8         -3.4338    0.8465    3.5280 C.ar      1 <0>         0.1136
      9 C9         -3.2705    1.6982    2.4449 C.ar      1 <0>        -0.1096
     10 C10        -2.6185    1.2544    1.3109 C.ar      1 <0>        -0.0948
     11 O1         -4.0708    1.2821    4.6466 O.3       1 <0>        -0.2437
     12 C11        -3.3154    1.6018    5.7250 C.ar      1 <0>         0.3365
     13 C12        -3.9383    1.9476    6.9207 C.ar      1 <0>        -0.1823
     14 C13        -3.1640    2.2720    8.0153 C.ar      1 <0>         0.0210
     15 C14        -1.7683    2.2399    7.8772 C.ar      1 <0>        -0.2198
     16 C15        -1.2182    1.8831    6.6455 C.ar      1 <0>         0.1753
     17 N1         -1.9949    1.5754    5.6279 N.ar      1 <0>        -0.5342
     18 C16        -0.8947    2.5788    9.0178 C.2       1 <0>         0.5701
     19 O2         -1.3836    2.8889   10.0869 O.2       1 <0>        -0.5292
     20 N2          0.4450    2.5447    8.8740 N.am      1 <0>        -0.8495
     21 N3          0.7543   -0.7172   -1.0753 N.4       1 <0>        -0.4975
     22 C17         2.1938   -0.4500   -0.9557 C.3       1 <0>        -0.0506
     23 C18         2.9101   -0.9408   -2.2154 C.3       1 <0>         0.0871
     24 H1          2.5144   -0.4172   -3.0857 H         1 <0>         0.1352
     25 C19         4.4094   -0.6625   -2.0908 C.3       1 <0>         0.0304
     26 O3          5.0622   -1.0136   -3.3125 O.3       1 <0>        -0.3015
     27 C20         6.4078   -0.8263   -3.3694 C.ar      1 <0>         0.1368
     28 C21         7.0865   -0.3211   -2.2720 C.ar      1 <0>        -0.2014
     29 C22         8.4560   -0.1297   -2.3277 C.ar      1 <0>        -0.0682
     30 C23         9.1573   -0.4400   -3.4764 C.ar      1 <0>        -0.1307
     31 C24         8.4879   -0.9464   -4.5812 C.ar      1 <0>         0.1314
     32 C25         7.1085   -1.1462   -4.5270 C.ar      1 <0>         0.0666
     33 N4          6.7269   -1.6635   -5.7649 N.am      1 <0>        -0.5339
     34 C26         7.8268   -1.7774   -6.5330 C.2       1 <0>         0.6795
     35 O4          7.8439   -2.1975   -7.6751 O.2       1 <0>        -0.5434
     36 N5          8.9032   -1.3447   -5.8497 N.am      1 <0>        -0.6399
     37 H2          9.8147   -1.3239   -6.1808 H         1 <0>         0.4407
     38 C27         5.3628   -2.0216   -6.1614 C.3       1 <0>         0.1042
     39 O5          2.6974   -2.3457   -2.3675 O.3       1 <0>        -0.5435
     40 H3          1.3624    1.4565    0.3858 H         1 <0>         0.0820
     41 H4         -0.1014    1.7819   -0.5733 H         1 <0>         0.0839
     42 H5         -0.2161    1.6079    1.1945 H         1 <0>         0.1119
     43 H6          0.1116   -0.6314    2.2532 H         1 <0>         0.1123
     44 H7          0.4597   -2.0526    1.2397 H         1 <0>         0.0833
     45 H8          1.6900   -0.7827    1.4445 H         1 <0>         0.0814
     46 H9         -1.8284   -0.0006   -0.8607 H         1 <0>         0.0993
     47 H10        -1.5950   -1.5959   -0.1065 H         1 <0>         0.0992
     48 H11        -1.9193   -1.9014    2.2803 H         1 <0>         0.1317
     49 H12        -3.0721   -1.1161    4.3084 H         1 <0>         0.1326
     50 H13        -3.6497    2.7085    2.4899 H         1 <0>         0.1366
     51 H14        -2.4876    1.9182    0.4691 H         1 <0>         0.1331
     52 H15        -5.0160    1.9621    6.9906 H         1 <0>         0.1567
     53 H16        -3.6209    2.5444    8.9552 H         1 <0>         0.1619
     54 H17        -0.1451    1.8547    6.5270 H         1 <0>         0.1641
     55 H18         0.8351    2.2973    8.0210 H         1 <0>         0.3985
     56 H19         1.0190    2.7674    9.6235 H         1 <0>         0.4111
     57 H20         0.6041   -1.7092   -1.1827 H         1 <0>         0.4318
     58 H21         2.3560    0.6216   -0.8397 H         1 <0>         0.1492
     59 H22         2.5894   -0.9737   -0.0854 H         1 <0>         0.1425
     60 H23         4.5665    0.3965   -1.8862 H         1 <0>         0.0842
     61 H24         4.8224   -1.2554   -1.2747 H         1 <0>         0.0794
     62 H25         6.5450   -0.0757   -1.3703 H         1 <0>         0.1350
     63 H26         8.9788    0.2647   -1.4690 H         1 <0>         0.1411
     64 H27        10.2259   -0.2883   -3.5146 H         1 <0>         0.1395
     65 H28         4.8767   -1.1566   -6.6127 H         1 <0>         0.0672
     66 H29         5.3966   -2.8373   -6.8836 H         1 <0>         0.0872
     67 H30         4.8000   -2.3372   -5.2828 H         1 <0>         0.0883
     68 H31         3.0255   -2.8755   -1.6280 H         1 <0>         0.3901
     69 H32         0.3880   -0.2325   -1.8809 H         1 <0>         0.4291
@<TRIPOS>BOND
     1    1    2 1
     2    1   40 1
     3    1   41 1
     4    1   42 1
     5    2    3 1
     6    2    4 1
     7    2   21 1
     8    3   43 1
     9    3   44 1
    10    3   45 1
    11    4    5 1
    12    4   46 1
    13    4   47 1
    14    5   10 ar
    15    5    6 ar
    16    6    7 ar
    17    6   48 1
    18    7    8 ar
    19    7   49 1
    20    8    9 ar
    21    8   11 1
    22    9   10 ar
    23    9   50 1
    24   10   51 1
    25   11   12 1
    26   12   17 ar
    27   12   13 ar
    28   13   14 ar
    29   13   52 1
    30   14   15 ar
    31   14   53 1
    32   15   16 ar
    33   15   18 1
    34   16   17 ar
    35   16   54 1
    36   18   19 2
    37   18   20 am
    38   20   55 1
    39   20   56 1
    40   21   22 1
    41   21   57 1
    42   21   69 1
    43   22   23 1
    44   22   58 1
    45   22   59 1
    46   23   24 1
    47   23   25 1
    48   23   39 1
    49   25   26 1
    50   25   60 1
    51   25   61 1
    52   26   27 1
    53   27   32 ar
    54   27   28 ar
    55   28   29 ar
    56   28   62 1
    57   29   30 ar
    58   29   63 1
    59   30   31 ar
    60   30   64 1
    61   31   36 1
    62   31   32 ar
    63   32   33 1
    64   33   34 am
    65   33   38 1
    66   34   35 2
    67   34   36 am
    68   36   37 1
    69   38   65 1
    70   38   66 1
    71   38   67 1
    72   39   68 1
@<TRIPOS>MOLECULE
CHEMBL163579
   83    86     0     0     0
SMALL
USER_CHARGES

@<TRIPOS>ATOM
      1 C1          0.0744   -6.4551    7.8926 C.3       1 <0>        -0.1554
      2 C2         -0.0918   -7.6564    6.9598 C.3       1 <0>        -0.1256
      3 C3         -1.5359   -7.7163    6.4578 C.3       1 <0>        -0.1221
      4 C4         -1.7022   -8.9176    5.5250 C.3       1 <0>        -0.1204
      5 C5         -3.1462   -8.9776    5.0231 C.3       1 <0>        -0.1204
      6 C6         -3.3125  -10.1789    4.0903 C.3       1 <0>        -0.1155
      7 C7         -4.7566  -10.2389    3.5884 C.3       1 <0>        -0.1402
      8 C8         -4.9228  -11.4402    2.6556 C.3       1 <0>         0.1272
      9 N1         -6.3056  -11.4976    2.1750 N.am      1 <0>        -0.5549
     10 C9         -7.3417  -12.1617    2.7846 C.2       1 <0>         0.2833
     11 N2         -8.4158  -11.9951    2.0816 N.2       1 <0>        -0.2814
     12 N3         -8.0928  -11.2000    0.9733 N.am      1 <0>        -0.4049
     13 C10        -6.7795  -10.9027    1.0619 C.2       1 <0>         0.6526
     14 O1         -6.1395  -10.2239    0.2789 O.2       1 <0>        -0.5327
     15 C11        -8.9713  -10.7860   -0.0355 C.ar      1 <0>         0.2496
     16 C12        -8.5078  -10.0005   -1.0828 C.ar      1 <0>        -0.1690
     17 C13        -9.3768   -9.5938   -2.0761 C.ar      1 <0>         0.0106
     18 C14       -10.7074   -9.9675   -2.0285 C.ar      1 <0>        -0.6968
     19 C15       -11.1722  -10.7493   -0.9868 C.ar      1 <0>         0.0094
     20 C16       -10.3068  -11.1648    0.0062 C.ar      1 <0>        -0.1483
     21 S1        -11.8129   -9.4460   -3.2975 S.o2      1 <0>         2.6901
     22 O2        -13.0992   -9.3499   -2.7012 O.2       1 <0>        -0.9419
     23 O3        -11.1921   -8.3475   -3.9509 O.2       1 <0>        -0.9454
     24 N4        -11.8965  -10.6716   -4.4081 N.pl3     1 <0>        -1.0683
     25 C17       -10.7529  -11.0550   -5.1124 C.ar      1 <0>         0.1443
     26 C18       -10.2712  -10.2590   -6.1440 C.ar      1 <0>        -0.1004
     27 C19        -9.1400  -10.6408   -6.8381 C.ar      1 <0>        -0.0985
     28 C20        -8.4871  -11.8142   -6.5075 C.ar      1 <0>        -0.1017
     29 C21        -8.9640  -12.6089   -5.4811 C.ar      1 <0>        -0.1010
     30 C22       -10.0914  -12.2301   -4.7792 C.ar      1 <0>        -0.1066
     31 C23        -7.2536  -12.2281   -7.2677 C.3       1 <0>        -0.1014
     32 C24        -6.0143  -11.6460   -6.5848 C.3       1 <0>        -0.0095
     33 N5         -4.8118  -12.0495   -7.3259 N.4       1 <0>        -0.5051
     34 C25        -3.6220  -11.4906   -6.6701 C.3       1 <0>        -0.0433
     35 C26        -2.3696  -11.9108   -7.4420 C.3       1 <0>         0.1418
     36 H1         -2.4303  -11.5372   -8.4642 H         1 <0>         0.1343
     37 C27        -1.1490  -11.3375   -6.7693 C.ar      1 <0>        -0.2004
     38 C28        -0.6107  -10.1339   -7.1990 C.ar      1 <0>        -0.0544
     39 C29         0.5127   -9.6448   -6.5506 C.ar      1 <0>        -0.1638
     40 C30         1.0551  -10.3678   -5.5047 C.ar      1 <0>         0.1226
     41 N6          0.5166  -11.5093   -5.1233 N.ar      1 <0>        -0.4750
     42 C31        -0.5555  -12.0017   -5.7129 C.ar      1 <0>         0.1172
     43 O4         -2.2776  -13.3367   -7.4607 O.3       1 <0>        -0.5460
     44 H2          1.1032   -6.4124    8.2501 H         1 <0>         0.0548
     45 H3         -0.1601   -5.5390    7.3505 H         1 <0>         0.0534
     46 H4         -0.6013   -6.5580    8.7416 H         1 <0>         0.0541
     47 H5          0.5840   -7.5534    6.1108 H         1 <0>         0.0600
     48 H6          0.1427   -8.5725    7.5018 H         1 <0>         0.0609
     49 H7         -2.2117   -7.8193    7.3068 H         1 <0>         0.0616
     50 H8         -1.7705   -6.8002    5.9158 H         1 <0>         0.0607
     51 H9         -1.0264   -8.8147    4.6760 H         1 <0>         0.0611
     52 H10        -1.4676   -9.8338    6.0671 H         1 <0>         0.0625
     53 H11        -3.8220   -9.0806    5.8721 H         1 <0>         0.0636
     54 H12        -3.3808   -8.0615    4.4810 H         1 <0>         0.0620
     55 H13        -2.6367  -10.0759    3.2413 H         1 <0>         0.0662
     56 H14        -3.0779  -11.0950    4.6324 H         1 <0>         0.0685
     57 H15        -5.4324  -10.3418    4.4374 H         1 <0>         0.0728
     58 H16        -4.9911   -9.3227    3.0463 H         1 <0>         0.0706
     59 H17        -4.2471  -11.3372    1.8066 H         1 <0>         0.0978
     60 H18        -4.6883  -12.3563    3.1977 H         1 <0>         0.1030
     61 H19        -7.2718  -12.7300    3.7003 H         1 <0>         0.2420
     62 H20        -7.4689   -9.7076   -1.1201 H         1 <0>         0.1607
     63 H21        -9.0169   -8.9829   -2.8908 H         1 <0>         0.1468
     64 H22       -12.2120  -11.0389   -0.9521 H         1 <0>         0.1499
     65 H23       -10.6693  -11.7796    0.8167 H         1 <0>         0.1500
     66 H24       -12.7397  -11.1232   -4.5695 H         1 <0>         0.4310
     67 H25       -10.7810   -9.3429   -6.4032 H         1 <0>         0.1435
     68 H26        -8.7649  -10.0225   -7.6402 H         1 <0>         0.1331
     69 H27        -8.4518  -13.5247   -5.2255 H         1 <0>         0.1300
     70 H28       -10.4607  -12.8489   -3.9748 H         1 <0>         0.1356
     71 H29        -7.1834  -13.3157   -7.2820 H         1 <0>         0.0983
     72 H30        -7.3143  -11.8544   -8.2899 H         1 <0>         0.0994
     73 H31        -6.0845  -10.5584   -6.5705 H         1 <0>         0.1361
     74 H32        -5.9536  -12.0196   -5.5626 H         1 <0>         0.1339
     75 H33        -4.7469  -13.0563   -7.3391 H         1 <0>         0.4324
     76 H34        -3.6922  -10.4030   -6.6559 H         1 <0>         0.1456
     77 H35        -3.5613  -11.8642   -5.6480 H         1 <0>         0.1375
     78 H36        -1.0558   -9.5908   -8.0195 H         1 <0>         0.1414
     79 H37         0.9588   -8.7107   -6.8589 H         1 <0>         0.1473
     80 H38         1.9302   -9.9935   -4.9944 H         1 <0>         0.1670
     81 H39        -0.9715  -12.9372   -5.3691 H         1 <0>         0.1524
     82 H40        -2.2202  -13.7387   -6.5831 H         1 <0>         0.3896
     83 H41        -4.8681  -11.7036   -8.2721 H         1 <0>         0.4301
@<TRIPOS>BOND
     1    1    2 1
     2    1   44 1
     3    1   45 1
     4    1   46 1
     5    2    3 1
     6    2   47 1
     7    2   48 1
     8    3    4 1
     9    3   49 1
    10    3   50 1
    11    4    5 1
    12    4   51 1
    13    4   52 1
    14    5    6 1
    15    5   53 1
    16    5   54 1
    17    6    7 1
    18    6   55 1
    19    6   56 1
    20    7    8 1
    21    7   57 1
    22    7   58 1
    23    8    9 1
    24    8   59 1
    25    8   60 1
    26    9   13 am
    27    9   10 1
    28   10   11 2
    29   10   61 1
    30   11   12 1
    31   12   13 am
    32   12   15 1
    33   13   14 2
    34   15   20 ar
    35   15   16 ar
    36   16   17 ar
    37   16   62 1
    38   17   18 ar
    39   17   63 1
    40   18   19 ar
    41   18   21 1
    42   19   20 ar
    43   19   64 1
    44   20   65 1
    45   21   22 2
    46   21   23 2
    47   21   24 1
    48   24   25 1
    49   24   66 1
    50   25   30 ar
    51   25   26 ar
    52   26   27 ar
    53   26   67 1
    54   27   28 ar
    55   27   68 1
    56   28   29 ar
    57   28   31 1
    58   29   30 ar
    59   29   69 1
    60   30   70 1
    61   31   32 1
    62   31   71 1
    63   31   72 1
    64   32   33 1
    65   32   73 1
    66   32   74 1
    67   33   34 1
    68   33   75 1
    69   33   83 1
    70   34   35 1
    71   34   76 1
    72   34   77 1
    73   35   36 1
    74   35   37 1
    75   35   43 1
    76   37   42 ar
    77   37   38 ar
    78   38   39 ar
    79   38   78 1
    80   39   40 ar
    81   39   79 1
    82   40   41 ar
    83   40   80 1
    84   41   42 ar
    85   42   81 1
    86   43   82 1
@<TRIPOS>MOLECULE
CHEMBL163579__1
   82    85     0     0     0
SMALL
USER_CHARGES

@<TRIPOS>ATOM
      1 C1         -0.0187    1.5258    0.0104 C.3       1 <0>        -0.1545
      2 C2          0.0021   -0.0041    0.0020 C.3       1 <0>        -0.1258
      3 C3          0.7182   -0.4975   -1.2568 C.3       1 <0>        -0.1218
      4 C4          0.7390   -2.0273   -1.2652 C.3       1 <0>        -0.1204
      5 C5          1.4551   -2.5207   -2.5240 C.3       1 <0>        -0.1201
      6 C6          1.4758   -4.0506   -2.5324 C.3       1 <0>        -0.1157
      7 C7          2.1920   -4.5440   -3.7912 C.3       1 <0>        -0.1396
      8 C8          2.2127   -6.0738   -3.7996 C.3       1 <0>         0.1285
      9 N1          2.8984   -6.5463   -5.0050 N.am      1 <0>        -0.5570
     10 C9          2.3061   -6.8101   -6.2157 C.2       1 <0>         0.2681
     11 N2          3.2148   -7.2077   -7.0474 N.2       1 <0>        -0.2780
     12 N3          4.4468   -7.2110   -6.3788 N.am      1 <0>        -0.3974
     13 C10         4.2195   -6.7908   -5.1167 C.2       1 <0>         0.6488
     14 O1          5.0539   -6.6592   -4.2393 O.2       1 <0>        -0.5310
     15 C11         5.6848   -7.5767   -6.9215 C.ar      1 <0>         0.2202
     16 C12         6.8286   -7.5368   -6.1349 C.ar      1 <0>        -0.1666
     17 C13         8.0481   -7.8981   -6.6732 C.ar      1 <0>         0.0034
     18 C14         8.1310   -8.2988   -7.9941 C.ar      1 <0>        -0.6343
     19 C15         6.9940   -8.3391   -8.7802 C.ar      1 <0>        -0.0006
     20 C16         5.7705   -7.9855   -8.2460 C.ar      1 <0>        -0.1505
     21 S1          9.6888   -8.7583   -8.6772 S.o2      1 <0>         2.6121
     22 O2          9.5872   -8.5716  -10.0822 O.2       1 <0>        -1.0248
     23 O3         10.6825   -8.1128   -7.8929 O.2       1 <0>        -1.0267
     24 N4          9.8720  -10.3851   -8.4280 N.2       1 <0>        -1.0821
     25 C17        11.0274  -11.0337   -8.8701 C.ar      1 <0>         0.2970
     26 C18        12.0263  -10.3144   -9.5140 C.ar      1 <0>        -0.2652
     27 C19        13.1676  -10.9587   -9.9494 C.ar      1 <0>        -0.0474
     28 C20        13.3164  -12.3183   -9.7456 C.ar      1 <0>        -0.2374
     29 C21        12.3239  -13.0373   -9.1050 C.ar      1 <0>        -0.0636
     30 C22        11.1826  -12.3983   -8.6619 C.ar      1 <0>        -0.1812
     31 C23        14.5627  -13.0181  -10.2230 C.3       1 <0>        -0.0706
     32 C24        15.6169  -12.9953   -9.1144 C.3       1 <0>        -0.0113
     33 N5         16.8318  -13.6774   -9.5799 N.4       1 <0>        -0.5054
     34 C25        17.8440  -13.6555   -8.5154 C.3       1 <0>        -0.0426
     35 C26        19.1094  -14.3660   -9.0002 C.3       1 <0>         0.1404
     36 H1         19.4977  -13.8554   -9.8814 H         1 <0>         0.1328
     37 C27        20.1477  -14.3435   -7.9082 C.ar      1 <0>        -0.1951
     38 C28        21.1132  -13.3486   -7.8779 C.ar      1 <0>        -0.0553
     39 C29        22.0484  -13.3677   -6.8547 C.ar      1 <0>        -0.1653
     40 C30        21.9878  -14.3707   -5.9055 C.ar      1 <0>         0.1185
     41 N6         21.0555  -15.3011   -5.9661 N.ar      1 <0>        -0.4762
     42 C31        20.1463  -15.3107   -6.9214 C.ar      1 <0>         0.1169
     43 O4         18.7974  -15.7202   -9.3330 O.3       1 <0>        -0.5469
     44 H2          1.0039    1.9031    0.0027 H         1 <0>         0.0534
     45 H3         -0.5459    1.8868   -0.8726 H         1 <0>         0.0533
     46 H4         -0.5289    1.8773    0.9072 H         1 <0>         0.0534
     47 H5          0.5293   -0.3651    0.8851 H         1 <0>         0.0605
     48 H6         -1.0205   -0.3814    0.0098 H         1 <0>         0.0603
     49 H7          0.1910   -0.1364   -2.1398 H         1 <0>         0.0608
     50 H8          1.7408   -0.1202   -1.2645 H         1 <0>         0.0610
     51 H9          1.2661   -2.3884   -0.3821 H         1 <0>         0.0618
     52 H10        -0.2836   -2.4046   -1.2575 H         1 <0>         0.0616
     53 H11         0.9279   -2.1597   -3.4071 H         1 <0>         0.0623
     54 H12         2.4777   -2.1435   -2.5317 H         1 <0>         0.0625
     55 H13         2.0030   -4.4117   -1.6494 H         1 <0>         0.0671
     56 H14         0.4533   -4.4279   -2.5247 H         1 <0>         0.0668
     57 H15         1.6648   -4.1829   -4.6743 H         1 <0>         0.0706
     58 H16         3.2146   -4.1667   -3.7990 H         1 <0>         0.0712
     59 H17         2.7399   -6.4349   -2.9166 H         1 <0>         0.0976
     60 H18         1.1901   -6.4511   -3.7919 H         1 <0>         0.0991
     61 H19         1.2545   -6.7035   -6.4374 H         1 <0>         0.2373
     62 H20         6.7646   -7.2233   -5.1033 H         1 <0>         0.1569
     63 H21         8.9379   -7.8673   -6.0619 H         1 <0>         0.1449
     64 H22         7.0622   -8.6518   -9.8117 H         1 <0>         0.1454
     65 H23         4.8821   -8.0221   -8.8590 H         1 <0>         0.1420
     66 H24        11.9103   -9.2527   -9.6741 H         1 <0>         0.1016
     67 H25        13.9446  -10.4001  -10.4501 H         1 <0>         0.1013
     68 H26        12.4433  -14.0991   -8.9474 H         1 <0>         0.1042
     69 H27        10.4099  -12.9596   -8.1577 H         1 <0>         0.1167
     70 H28        14.3248  -14.0511  -10.4769 H         1 <0>         0.0805
     71 H29        14.9511  -12.5076  -11.1043 H         1 <0>         0.0793
     72 H30        15.8549  -11.9623   -8.8605 H         1 <0>         0.1304
     73 H31        15.2286  -13.5058   -8.2332 H         1 <0>         0.1307
     74 H32        16.6116  -14.6336   -9.8149 H         1 <0>         0.4291
     75 H33        18.0819  -12.6225   -8.2615 H         1 <0>         0.1429
     76 H34        17.4556  -14.1660   -7.6342 H         1 <0>         0.1361
     77 H35        21.1363  -12.5773   -8.6336 H         1 <0>         0.1413
     78 H36        22.8148  -12.6087   -6.8001 H         1 <0>         0.1455
     79 H37        22.7126  -14.3926   -5.1052 H         1 <0>         0.1651
     80 H38        19.3947  -16.0862   -6.9352 H         1 <0>         0.1538
     81 H39        18.4459  -16.2358   -8.5943 H         1 <0>         0.3893
     82 H40        17.1914  -13.2048  -10.3956 H         1 <0>         0.4263
@<TRIPOS>BOND
     1    1    2 1
     2    1   44 1
     3    1   45 1
     4    1   46 1
     5    2    3 1
     6    2   47 1
     7    2   48 1
     8    3    4 1
     9    3   49 1
    10    3   50 1
    11    4    5 1
    12    4   51 1
    13    4   52 1
    14    5    6 1
    15    5   53 1
    16    5   54 1
    17    6    7 1
    18    6   55 1
    19    6   56 1
    20    7    8 1
    21    7   57 1
    22    7   58 1
    23    8    9 1
    24    8   59 1
    25    8   60 1
    26    9   13 am
    27    9   10 1
    28   10   11 2
    29   10   61 1
    30   11   12 1
    31   12   13 am
    32   12   15 1
    33   13   14 2
    34   15   20 ar
    35   15   16 ar
    36   16   17 ar
    37   16   62 1
    38   17   18 ar
    39   17   63 1
    40   18   19 ar
    41   18   21 1
    42   19   20 ar
    43   19   64 1
    44   20   65 1
    45   21   22 2
    46   21   23 2
    47   21   24 1
    48   24   25 1
    49   25   30 ar
    50   25   26 ar
    51   26   27 ar
    52   26   66 1
    53   27   28 ar
    54   27   67 1
    55   28   29 ar
    56   28   31 1
    57   29   30 ar
    58   29   68 1
    59   30   69 1
    60   31   32 1
    61   31   70 1
    62   31   71 1
    63   32   33 1
    64   32   72 1
    65   32   73 1
    66   33   34 1
    67   33   74 1
    68   33   82 1
    69   34   35 1
    70   34   75 1
    71   34   76 1
    72   35   36 1
    73   35   37 1
    74   35   43 1
    75   37   42 ar
    76   37   38 ar
    77   38   39 ar
    78   38   77 1
    79   39   40 ar
    80   39   78 1
    81   40   41 ar
    82   40   79 1
    83   41   42 ar
    84   42   80 1
    85   43   81 1
@<TRIPOS>MOLECULE
CHEMBL38532
   57    59     0     0     0
SMALL
USER_CHARGES

@<TRIPOS>ATOM
      1 C1         -0.0167    1.3786    0.0096 C.ar      1 <0>        -0.0394
      2 C2          1.1635    2.0954    0.0022 C.ar      1 <0>        -0.1678
      3 C3          2.3878    1.4339   -0.0136 C.ar      1 <0>         0.2045
      4 C4          2.4026    0.0400   -0.0245 C.ar      1 <0>        -0.1689
      5 C5          1.2143   -0.6781   -0.0150 C.ar      1 <0>         0.1797
      6 C6          0.0021   -0.0041    0.0020 C.ar      1 <0>        -0.2188
      7 O1          1.2389   -2.0380   -0.0224 O.3       1 <0>        -0.2870
      8 C7         -0.0224   -2.7096   -0.0118 C.3       1 <0>         0.0281
      9 C8          0.2054   -4.2226   -0.0223 C.3       1 <0>         0.0849
     10 C9         -1.1409   -4.9402   -0.1368 C.3       1 <0>        -0.0405
     11 N1         -0.9222   -6.3928   -0.1468 N.4       1 <0>        -0.4994
     12 C10        -2.2149   -7.0819   -0.2567 C.3       1 <0>        -0.0211
     13 C11        -1.9871   -8.5948   -0.2672 C.3       1 <0>         0.0937
     14 N2         -3.2763   -9.2820   -0.3768 N.am      1 <0>        -0.7316
     15 C12        -3.3219  -10.6287   -0.4048 C.2       1 <0>         0.5719
     16 O2         -2.2932  -11.2732   -0.3391 O.2       1 <0>        -0.5058
     17 C13        -4.6223  -11.3219   -0.5154 C.ar      1 <0>        -0.1629
     18 C14        -5.8051  -10.5843   -0.5968 C.ar      1 <0>        -0.0190
     19 C15        -7.0154  -11.2366   -0.7003 C.ar      1 <0>        -0.1328
     20 C16        -7.0594  -12.6211   -0.7235 C.ar      1 <0>         0.0808
     21 C17        -5.8897  -13.3581   -0.6431 C.ar      1 <0>        -0.6800
     22 C18        -4.6727  -12.7167   -0.5446 C.ar      1 <0>         0.0564
     23 S1         -5.9558  -15.1186   -0.6734 S.o2      1 <0>         2.6967
     24 O3         -6.7841  -15.4750   -1.7717 O.2       1 <0>        -0.9369
     25 O4         -4.6168  -15.5775   -0.5487 O.2       1 <0>        -0.9468
     26 N3         -6.7514  -15.6023    0.6960 N.pl3     1 <0>        -1.2412
     27 Cl1        -8.5871  -13.4354   -0.8534 Cl        1 <0>        -0.0108
     28 O5          0.8530   -4.6152    1.1895 O.3       1 <0>        -0.5405
     29 S2          3.9527   -0.8033   -0.0554 S.3       1 <0>        -0.0533
     30 C19         5.0213    0.3684   -0.9455 C.3       1 <0>        -0.1358
     31 C20         4.7611    1.7544   -0.4216 C.2       1 <0>         0.5229
     32 O6          5.6914    2.5308   -0.3677 O.2       1 <0>        -0.5001
     33 N4          3.5665    2.1752   -0.0147 N.am      1 <0>        -0.6566
     34 H1         -0.9614    1.9017    0.0260 H         1 <0>         0.1408
     35 H2          1.1363    3.1751    0.0090 H         1 <0>         0.1406
     36 H3         -0.9250   -0.5580    0.0097 H         1 <0>         0.1346
     37 H4         -0.5746   -2.4316    0.8858 H         1 <0>         0.0803
     38 H5         -0.5945   -2.4222   -0.8940 H         1 <0>         0.0854
     39 H6          0.8330   -4.4896   -0.8726 H         1 <0>         0.1390
     40 H7         -1.7685   -4.6732    0.7135 H         1 <0>         0.1422
     41 H8         -1.6349   -4.6408   -1.0611 H         1 <0>         0.1496
     42 H9         -0.3413   -6.6401   -0.9339 H         1 <0>         0.4358
     43 H10        -2.8425   -6.8148    0.5936 H         1 <0>         0.1412
     44 H11        -2.7089   -6.7824   -1.1811 H         1 <0>         0.1420
     45 H12        -1.3596   -8.8619   -1.1175 H         1 <0>         0.0959
     46 H13        -1.4932   -8.8943    0.6572 H         1 <0>         0.0959
     47 H14        -4.0971   -8.7678   -0.4292 H         1 <0>         0.4073
     48 H15        -5.7720   -9.5050   -0.5784 H         1 <0>         0.1427
     49 H16        -7.9309  -10.6672   -0.7630 H         1 <0>         0.1570
     50 H17        -3.7608  -13.2924   -0.4864 H         1 <0>         0.1707
     51 H18        -7.2704  -16.4218    0.6915 H         1 <0>         0.4280
     52 H19        -6.6986  -15.0662    1.5026 H         1 <0>         0.4179
     53 H20         0.3502   -4.4078    1.9891 H         1 <0>         0.3903
     54 H21         6.0666    0.1062   -0.7822 H         1 <0>         0.1545
     55 H22         4.7953    0.3321   -2.0112 H         1 <0>         0.1283
     56 H23         3.5112    3.0866    0.3129 H         1 <0>         0.4196
     57 H24        -0.4650   -6.6700    0.7089 H         1 <0>         0.4379
@<TRIPOS>BOND
     1    1    6 ar
     2    1    2 ar
     3    1   34 1
     4    2    3 ar
     5    2   35 1
     6    3   33 1
     7    3    4 ar
     8    4    5 ar
     9    4   29 1
    10    5    6 ar
    11    5    7 1
    12    6   36 1
    13    7    8 1
    14    8    9 1
    15    8   37 1
    16    8   38 1
    17    9   10 1
    18    9   28 1
    19    9   39 1
    20   10   11 1
    21   10   40 1
    22   10   41 1
    23   11   12 1
    24   11   42 1
    25   11   57 1
    26   12   13 1
    27   12   43 1
    28   12   44 1
    29   13   14 1
    30   13   45 1
    31   13   46 1
    32   14   15 am
    33   14   47 1
    34   15   16 2
    35   15   17 1
    36   17   22 ar
    37   17   18 ar
    38   18   19 ar
    39   18   48 1
    40   19   20 ar
    41   19   49 1
    42   20   21 ar
    43   20   27 1
    44   21   22 ar
    45   21   23 1
    46   22   50 1
    47   23   24 2
    48   23   25 2
    49   23   26 1
    50   26   51 1
    51   26   52 1
    52   28   53 1
    53   29   30 1
    54   30   31 1
    55   30   54 1
    56   30   55 1
    57   31   32 2
    58   31   33 am
    59   33   56 1
@<TRIPOS>MOLECULE
CHEMBL38532__1
   57    59     0     0     0
SMALL
USER_CHARGES

@<TRIPOS>ATOM
      1 C1         -0.0167    1.3786    0.0096 C.ar      1 <0>        -0.0395
      2 C2          1.1635    2.0954    0.0022 C.ar      1 <0>        -0.1678
      3 C3          2.3878    1.4339   -0.0136 C.ar      1 <0>         0.2044
      4 C4          2.4026    0.0400   -0.0245 C.ar      1 <0>        -0.1687
      5 C5          1.2143   -0.6781   -0.0150 C.ar      1 <0>         0.1797
      6 C6          0.0021   -0.0041    0.0020 C.ar      1 <0>        -0.2188
      7 O1          1.2389   -2.0380   -0.0224 O.3       1 <0>        -0.2870
      8 C7         -0.0224   -2.7096   -0.0118 C.3       1 <0>         0.0280
      9 C8          0.2054   -4.2226   -0.0223 C.3       1 <0>         0.0852
     10 C9         -1.1381   -4.9416    0.1147 C.3       1 <0>        -0.0404
     11 N1         -0.9101   -6.3886    0.2249 N.4       1 <0>        -0.4999
     12 C10        -2.2001   -7.0789    0.3564 C.3       1 <0>        -0.0212
     13 C11        -1.9627   -8.5860    0.4713 C.3       1 <0>         0.0936
     14 N2         -3.2492   -9.2745    0.6025 N.am      1 <0>        -0.7316
     15 C12        -3.2864  -10.6167    0.7188 C.2       1 <0>         0.5720
     16 O2         -2.2525  -11.2560    0.7149 O.2       1 <0>        -0.5058
     17 C13        -4.5842  -11.3112    0.8511 C.ar      1 <0>        -0.1630
     18 C14        -5.7738  -10.5800    0.8501 C.ar      1 <0>        -0.0190
     19 C15        -6.9815  -11.2335    0.9733 C.ar      1 <0>        -0.1328
     20 C16        -7.0163  -12.6128    1.0980 C.ar      1 <0>         0.0808
     21 C17        -5.8398  -13.3434    1.0997 C.ar      1 <0>        -0.6800
     22 C18        -4.6259  -12.7013    0.9717 C.ar      1 <0>         0.0564
     23 S1         -5.8942  -15.0973    1.2588 S.o2      1 <0>         2.6967
     24 O3         -6.8559  -15.5606    0.3208 O.2       1 <0>        -0.9369
     25 O4         -4.5465  -15.5476    1.2535 O.2       1 <0>        -0.9468
     26 N3         -6.4998  -15.4339    2.7629 N.pl3     1 <0>        -1.2412
     27 Cl1        -8.5408  -13.4286    1.2534 Cl        1 <0>        -0.0108
     28 O5          0.8257   -4.6024   -1.2524 O.3       1 <0>        -0.5393
     29 S2          3.9527   -0.8033   -0.0554 S.3       1 <0>        -0.0546
     30 C19         5.0213    0.3684   -0.9455 C.3       1 <0>        -0.1349
     31 C20         4.7611    1.7544   -0.4216 C.2       1 <0>         0.5228
     32 O6          5.6914    2.5308   -0.3677 O.2       1 <0>        -0.5001
     33 N4          3.5665    2.1752   -0.0147 N.am      1 <0>        -0.6566
     34 H1         -0.9614    1.9017    0.0260 H         1 <0>         0.1408
     35 H2          1.1363    3.1751    0.0090 H         1 <0>         0.1406
     36 H3         -0.9250   -0.5580    0.0097 H         1 <0>         0.1346
     37 H4         -0.5746   -2.4316    0.8858 H         1 <0>         0.0849
     38 H5         -0.5945   -2.4222   -0.8940 H         1 <0>         0.0808
     39 H6          0.8518   -4.4984    0.8109 H         1 <0>         0.1374
     40 H7         -1.6514   -4.5855    1.0079 H         1 <0>         0.1490
     41 H8         -1.7512   -4.7362   -0.7629 H         1 <0>         0.1429
     42 H9         -0.4350   -6.7182   -0.6019 H         1 <0>         0.4385
     43 H10        -2.7134   -6.7228    1.2497 H         1 <0>         0.1418
     44 H11        -2.8133   -6.8735   -0.5211 H         1 <0>         0.1414
     45 H12        -1.4494   -8.9421   -0.4219 H         1 <0>         0.0959
     46 H13        -1.3496   -8.7914    1.3488 H         1 <0>         0.0958
     47 H14        -4.0742   -8.7643    0.6056 H         1 <0>         0.4073
     48 H15        -5.7478   -9.5046    0.7533 H         1 <0>         0.1427
     49 H16        -7.9022  -10.6690    0.9731 H         1 <0>         0.1570
     50 H17        -3.7093  -13.2724    0.9687 H         1 <0>         0.1707
     51 H18        -7.0078  -16.2470    2.9104 H         1 <0>         0.4280
     52 H19        -6.3465  -14.8180    3.4965 H         1 <0>         0.4179
     53 H20         0.3053   -4.3867   -2.0383 H         1 <0>         0.3907
     54 H21         6.0666    0.1062   -0.7822 H         1 <0>         0.1545
     55 H22         4.7953    0.3321   -2.0112 H         1 <0>         0.1286
     56 H23         3.5112    3.0866    0.3129 H         1 <0>         0.4196
     57 H24        -0.3426   -6.5787    1.0372 H         1 <0>         0.4353
@<TRIPOS>BOND
     1    1    6 ar
     2    1    2 ar
     3    1   34 1
     4    2    3 ar
     5    2   35 1
     6    3   33 1
     7    3    4 ar
     8    4    5 ar
     9    4   29 1
    10    5    6 ar
    11    5    7 1
    12    6   36 1
    13    7    8 1
    14    8    9 1
    15    8   37 1
    16    8   38 1
    17    9   10 1
    18    9   28 1
    19    9   39 1
    20   10   11 1
    21   10   40 1
    22   10   41 1
    23   11   12 1
    24   11   42 1
    25   11   57 1
    26   12   13 1
    27   12   43 1
    28   12   44 1
    29   13   14 1
    30   13   45 1
    31   13   46 1
    32   14   15 am
    33   14   47 1
    34   15   16 2
    35   15   17 1
    36   17   22 ar
    37   17   18 ar
    38   18   19 ar
    39   18   48 1
    40   19   20 ar
    41   19   49 1
    42   20   21 ar
    43   20   27 1
    44   21   22 ar
    45   21   23 1
    46   22   50 1
    47   23   24 2
    48   23   25 2
    49   23   26 1
    50   26   51 1
    51   26   52 1
    52   28   53 1
    53   29   30 1
    54   30   31 1
    55   30   54 1
    56   30   55 1
    57   31   32 2
    58   31   33 am
    59   33   56 1
@<TRIPOS>MOLECULE
CHEMBL276659
   57    59     0     0     0
SMALL
USER_CHARGES

@<TRIPOS>ATOM
      1 C1         -1.0743   -0.5357    0.5764 C.ar      1 <0>        -0.0833
      2 C2         -0.9693   -1.7779    1.1767 C.ar      1 <0>        -0.1250
      3 C3          0.2351   -2.4506    1.1710 C.ar      1 <0>        -0.0545
      4 C4          1.3493   -1.8753    0.5578 C.ar      1 <0>        -0.1477
      5 C5          1.2365   -0.6218   -0.0460 C.ar      1 <0>        -0.0853
      6 C6          0.0263    0.0401   -0.0331 C.ar      1 <0>        -0.1251
      7 C7          2.6431   -2.5902    0.5483 C.2       1 <0>         0.5668
      8 O1          2.7384   -3.6815    1.0752 O.2       1 <0>        -0.5149
      9 N1          3.7170   -2.0320   -0.0446 N.am      1 <0>        -0.6747
     10 C8          4.9632   -2.6622    0.0299 C.ar      1 <0>         0.1667
     11 C9          6.1225   -1.9030    0.1240 C.ar      1 <0>        -0.1423
     12 C10         7.3516   -2.5285    0.1979 C.ar      1 <0>        -0.0871
     13 C11         7.4289   -3.9091    0.1779 C.ar      1 <0>        -0.1277
     14 C12         6.2766   -4.6678    0.0839 C.ar      1 <0>        -0.0873
     15 C13         5.0439   -4.0487    0.0159 C.ar      1 <0>        -0.1182
     16 C14         8.7718   -4.5881    0.2583 C.3       1 <0>        -0.0969
     17 C15         9.1268   -4.8443    1.7243 C.3       1 <0>        -0.0077
     18 N2         10.4359   -5.5063    1.8027 N.4       1 <0>        -0.5036
     19 C16        10.7767   -5.7523    3.2102 C.3       1 <0>        -0.0419
     20 C17        12.1401   -6.4418    3.2918 C.3       1 <0>         0.0858
     21 H1         12.8985   -5.8018    2.8408 H         1 <0>         0.1362
     22 C18        12.4952   -6.6980    4.7579 C.3       1 <0>         0.0288
     23 O2         13.8168   -7.2350    4.8411 O.3       1 <0>        -0.3011
     24 C19        14.2898   -7.5212    6.0834 C.ar      1 <0>         0.1089
     25 C20        13.4949   -7.2947    7.1973 C.ar      1 <0>        -0.1914
     26 C21        13.9754   -7.5854    8.4593 C.ar      1 <0>        -0.1061
     27 C22        15.2525   -8.1043    8.6126 C.ar      1 <0>         0.0803
     28 C23        16.0470   -8.3316    7.4987 C.ar      1 <0>        -0.1027
     29 C24        15.5649   -8.0449    6.2364 C.ar      1 <0>        -0.1261
     30 O3         15.7258   -8.3896    9.8551 O.3       1 <0>        -0.4957
     31 O4         12.0877   -7.6855    2.5900 O.3       1 <0>        -0.5434
     32 H2         -2.0206   -0.0153    0.5797 H         1 <0>         0.1331
     33 H3         -1.8321   -2.2217    1.6511 H         1 <0>         0.1352
     34 H4          0.3157   -3.4200    1.6402 H         1 <0>         0.1378
     35 H5          2.0949   -0.1711   -0.5218 H         1 <0>         0.1248
     36 H6         -0.0623    1.0100   -0.4999 H         1 <0>         0.1338
     37 H7          3.6256   -1.1932   -0.5231 H         1 <0>         0.4151
     38 H8          6.0629   -0.8248    0.1389 H         1 <0>         0.1328
     39 H9          8.2534   -1.9388    0.2710 H         1 <0>         0.1291
     40 H10         6.3404   -5.7458    0.0682 H         1 <0>         0.1284
     41 H11         4.1441   -4.6419   -0.0531 H         1 <0>         0.1459
     42 H12         8.7318   -5.5368   -0.2770 H         1 <0>         0.0964
     43 H13         9.5301   -3.9481   -0.1927 H         1 <0>         0.0963
     44 H14         9.1668   -3.8957    2.2596 H         1 <0>         0.1344
     45 H15         8.3684   -5.4843    2.1753 H         1 <0>         0.1341
     46 H16        10.3989   -6.3845    1.3071 H         1 <0>         0.4335
     47 H17        10.8167   -4.8036    3.7455 H         1 <0>         0.1471
     48 H18        10.0184   -6.3923    3.6612 H         1 <0>         0.1399
     49 H19        12.4482   -5.7606    5.3122 H         1 <0>         0.0820
     50 H20        11.7869   -7.4082    5.1844 H         1 <0>         0.0769
     51 H21        12.5005   -6.8906    7.0779 H         1 <0>         0.1285
     52 H22        13.3567   -7.4083    9.3266 H         1 <0>         0.1352
     53 H23        17.0416   -8.7353    7.6181 H         1 <0>         0.1418
     54 H24        16.1822   -8.2255    5.3688 H         1 <0>         0.1387
     55 H25        15.5377   -9.2911   10.1501 H         1 <0>         0.3940
     56 H26        11.4329   -8.3061    2.9380 H         1 <0>         0.3903
     57 H27        11.1379   -4.9139    1.3852 H         1 <0>         0.4308
@<TRIPOS>BOND
     1    1    6 ar
     2    1    2 ar
     3    1   32 1
     4    2    3 ar
     5    2   33 1
     6    3    4 ar
     7    3   34 1
     8    4    5 ar
     9    4    7 1
    10    5    6 ar
    11    5   35 1
    12    6   36 1
    13    7    8 2
    14    7    9 am
    15    9   10 1
    16    9   37 1
    17   10   15 ar
    18   10   11 ar
    19   11   12 ar
    20   11   38 1
    21   12   13 ar
    22   12   39 1
    23   13   14 ar
    24   13   16 1
    25   14   15 ar
    26   14   40 1
    27   15   41 1
    28   16   17 1
    29   16   42 1
    30   16   43 1
    31   17   18 1
    32   17   44 1
    33   17   45 1
    34   18   19 1
    35   18   46 1
    36   18   57 1
    37   19   20 1
    38   19   47 1
    39   19   48 1
    40   20   21 1
    41   20   22 1
    42   20   31 1
    43   22   23 1
    44   22   49 1
    45   22   50 1
    46   23   24 1
    47   24   29 ar
    48   24   25 ar
    49   25   26 ar
    50   25   51 1
    51   26   27 ar
    52   26   52 1
    53   27   28 ar
    54   27   30 1
    55   28   29 ar
    56   28   53 1
    57   29   54 1
    58   30   55 1
    59   31   56 1
@<TRIPOS>MOLECULE
CHEMBL463182
   54    57     0     0     0
SMALL
USER_CHARGES

@<TRIPOS>ATOM
      1 C1          1.5435    1.4168   -1.1025 C.ar      1 <0>        -0.1219
      2 C2          1.2013    2.0888    0.0529 C.ar      1 <0>        -0.0781
      3 C3          0.8606    1.3715    1.2024 C.ar      1 <0>        -0.1160
      4 C4          0.8683   -0.0249    1.1752 C.ar      1 <0>        -0.0999
      5 C5          1.2134   -0.6880    0.0100 C.ar      1 <0>         0.0462
      6 C6          1.5506    0.0344   -1.1274 C.ar      1 <0>        -0.1261
      7 O1          1.2228   -2.0466   -0.0209 O.3       1 <0>        -0.2514
      8 C7          0.0341   -2.6954    0.0915 C.ar      1 <0>         0.1433
      9 C8         -1.1541   -1.9783    0.0998 C.ar      1 <0>        -0.1718
     10 C9         -2.3544   -2.6465    0.2109 C.ar      1 <0>        -0.0712
     11 C10        -2.3864   -4.0316    0.3172 C.ar      1 <0>        -0.1271
     12 C11        -1.2085   -4.7452    0.3144 C.ar      1 <0>        -0.0600
     13 C12         0.0016   -4.0759    0.1927 C.ar      1 <0>        -0.1492
     14 C13        -1.1693   -6.2456    0.4426 C.3       1 <0>        -0.0890
     15 C14        -2.5374   -6.8477    0.1294 C.3       1 <0>         0.0256
     16 H1         -2.7597   -6.7226   -0.9303 H         1 <0>         0.1452
     17 C15        -3.5918   -6.1158    0.9680 C.3       1 <0>        -0.1364
     18 C16        -3.7348   -4.6943    0.4283 C.3       1 <0>        -0.0690
     19 N1         -2.5386   -8.2768    0.4696 N.4       1 <0>        -0.5013
     20 C17        -1.5946   -8.9885   -0.4024 C.3       1 <0>        -0.0489
     21 C18        -1.5957  -10.4769   -0.0481 C.3       1 <0>         0.1435
     22 H2         -2.5974  -10.8831   -0.1889 H         1 <0>         0.1363
     23 C19        -0.6273  -11.2070   -0.9427 C.ar      1 <0>        -0.1969
     24 C20        -1.0709  -11.8195   -2.1055 C.ar      1 <0>        -0.0401
     25 C21        -0.1454  -12.4796   -2.8979 C.ar      1 <0>        -0.1491
     26 C22         1.1815  -12.5056   -2.5053 C.ar      1 <0>         0.1909
     27 N2          1.5670  -11.9115   -1.3920 N.ar      1 <0>        -0.4681
     28 C23         0.7138  -11.2695   -0.6175 C.ar      1 <0>         0.1392
     29 Cl1         2.3514  -13.3295   -3.4882 Cl        1 <0>        -0.0060
     30 O2         -1.2020  -10.6422    1.3156 O.3       1 <0>        -0.5447
     31 C24         0.4945    2.0862    2.4402 C.2       1 <0>         0.5185
     32 O3          0.4890    3.3089    2.4614 O.co2     1 <0>        -0.6767
     33 O4          0.1967    1.4559    3.4450 O.co2     1 <0>        -0.6830
     34 H3          1.8023    1.9724   -1.9916 H         1 <0>         0.1278
     35 H4          1.1972    3.1687    0.0689 H         1 <0>         0.1359
     36 H5          0.6063   -0.5855    2.0604 H         1 <0>         0.1323
     37 H6          1.8191   -0.4857   -2.0350 H         1 <0>         0.1233
     38 H7         -1.1382   -0.9014    0.0199 H         1 <0>         0.1402
     39 H8         -3.2789   -2.0881    0.2157 H         1 <0>         0.1309
     40 H9          0.9250   -4.6359    0.1814 H         1 <0>         0.1319
     41 H10        -0.4323   -6.6466   -0.2533 H         1 <0>         0.0959
     42 H11        -0.8838   -6.5120    1.4603 H         1 <0>         0.0979
     43 H12        -4.5469   -6.6353    0.8917 H         1 <0>         0.0916
     44 H13        -3.2736   -6.0824    2.0100 H         1 <0>         0.0947
     45 H14        -4.3653   -4.1153    1.1031 H         1 <0>         0.0957
     46 H15        -4.2005   -4.7289   -0.5566 H         1 <0>         0.0839
     47 H16        -2.2605   -8.3936    1.4325 H         1 <0>         0.4312
     48 H17        -1.8949   -8.8624   -1.4426 H         1 <0>         0.1463
     49 H18        -0.5929   -8.5823   -0.2617 H         1 <0>         0.1400
     50 H19        -2.1130  -11.7830   -2.3865 H         1 <0>         0.1523
     51 H20        -0.4556  -12.9678   -3.8099 H         1 <0>         0.1566
     52 H21         1.0672  -10.7912    0.2840 H         1 <0>         0.1643
     53 H22        -0.3186  -10.3024    1.5138 H         1 <0>         0.3911
     54 H23        -3.4658   -8.6528    0.3393 H         1 <0>         0.4296
@<TRIPOS>BOND
     1    1    6 ar
     2    1    2 ar
     3    1   34 1
     4    2    3 ar
     5    2   35 1
     6    3    4 ar
     7    3   31 1
     8    4    5 ar
     9    4   36 1
    10    5    6 ar
    11    5    7 1
    12    6   37 1
    13    7    8 1
    14    8   13 ar
    15    8    9 ar
    16    9   10 ar
    17    9   38 1
    18   10   11 ar
    19   10   39 1
    20   11   18 1
    21   11   12 ar
    22   12   13 ar
    23   12   14 1
    24   13   40 1
    25   14   15 1
    26   14   41 1
    27   14   42 1
    28   15   16 1
    29   15   17 1
    30   15   19 1
    31   17   18 1
    32   17   43 1
    33   17   44 1
    34   18   45 1
    35   18   46 1
    36   19   20 1
    37   19   47 1
    38   19   54 1
    39   20   21 1
    40   20   48 1
    41   20   49 1
    42   21   22 1
    43   21   23 1
    44   21   30 1
    45   23   28 ar
    46   23   24 ar
    47   24   25 ar
    48   24   50 1
    49   25   26 ar
    50   25   51 1
    51   26   27 ar
    52   26   29 1
    53   27   28 ar
    54   28   52 1
    55   30   53 1
    56   31   32 2
    57   31   33 1
@<TRIPOS>MOLECULE
CHEMBL1363
   50    51     0     0     0
SMALL
USER_CHARGES

@<TRIPOS>ATOM
      1 C1         -0.0239    1.4905   -0.0463 C.3       1 <0>        -0.1838
      2 C2          0.0028   -0.0393   -0.0466 C.3       1 <0>         0.0285
      3 H1          0.5192   -0.3935   -0.9388 H         1 <0>         0.1401
      4 C3         -1.4306   -0.5744   -0.0408 C.3       1 <0>        -0.0923
      5 C4         -1.4068   -2.0761   -0.1649 C.ar      1 <0>        -0.1709
      6 C5         -1.4316   -2.6657   -1.4153 C.ar      1 <0>        -0.0628
      7 C6         -1.4103   -4.0420   -1.5318 C.ar      1 <0>        -0.1424
      8 C7         -1.3634   -4.8327   -0.3929 C.ar      1 <0>         0.1474
      9 C8         -1.3381   -4.2387    0.8606 C.ar      1 <0>        -0.2009
     10 C9         -1.3544   -2.8618    0.9716 C.ar      1 <0>        -0.0974
     11 O1         -1.3428   -6.1870   -0.5048 O.3       1 <0>        -0.3102
     12 C10        -1.2945   -6.9377    0.7101 C.3       1 <0>         0.0226
     13 N1          0.7087   -0.5170    1.1498 N.4       1 <0>        -0.5048
     14 C11         2.1168   -0.1038    1.0852 C.3       1 <0>        -0.0462
     15 C12         2.8520   -0.6013    2.3313 C.3       1 <0>         0.1378
     16 H2          2.7943   -1.6888    2.3773 H         1 <0>         0.1319
     17 C13         4.2967   -0.1774    2.2651 C.ar      1 <0>        -0.1327
     18 C14         4.6688    1.0764    2.7141 C.ar      1 <0>        -0.1041
     19 C15         5.9924    1.4711    2.6554 C.ar      1 <0>        -0.1192
     20 C16         6.9505    0.6097    2.1457 C.ar      1 <0>         0.1018
     21 C17         6.5764   -0.6537    1.6937 C.ar      1 <0>         0.1239
     22 C18         5.2471   -1.0448    1.7609 C.ar      1 <0>        -0.0918
     23 N2          7.5410   -1.5291    1.1772 N.am      1 <0>        -0.6778
     24 C19         7.4272   -2.8558    1.3854 C.2       1 <0>         0.4952
     25 O2          6.4494   -3.2996    1.9494 O.2       1 <0>        -0.5353
     26 O3          8.2526    0.9968    2.0865 O.3       1 <0>        -0.4924
     27 O4          2.2446   -0.0423    3.4978 O.3       1 <0>        -0.5459
     28 H3          0.9973    1.8716   -0.0504 H         1 <0>         0.0818
     29 H4         -0.5477    1.8449   -0.9340 H         1 <0>         0.1084
     30 H5         -0.5403    1.8446    0.8459 H         1 <0>         0.0839
     31 H6         -1.9190   -0.2947    0.8927 H         1 <0>         0.0965
     32 H7         -1.9806   -0.1491   -0.8802 H         1 <0>         0.1205
     33 H8         -1.4681   -2.0497   -2.3017 H         1 <0>         0.1365
     34 H9         -1.4304   -4.5021   -2.5087 H         1 <0>         0.1403
     35 H10        -1.3017   -4.8521    1.7487 H         1 <0>         0.1373
     36 H11        -1.3302   -2.3988    1.9470 H         1 <0>         0.1249
     37 H12        -1.2824   -8.0028    0.4788 H         1 <0>         0.1094
     38 H13        -0.3926   -6.6758    1.2634 H         1 <0>         0.0595
     39 H14        -2.1715   -6.7071    1.3148 H         1 <0>         0.0610
     40 H15         0.2798   -0.1223    1.9734 H         1 <0>         0.4277
     41 H16         2.5802   -0.5302    0.1955 H         1 <0>         0.1436
     42 H17         2.1746    0.9837    1.0392 H         1 <0>         0.1403
     43 H18         3.9233    1.7493    3.1113 H         1 <0>         0.1289
     44 H19         6.2796    2.4511    3.0066 H         1 <0>         0.1423
     45 H20         4.9544   -2.0252    1.4154 H         1 <0>         0.1482
     46 H21         8.2905   -1.1802    0.6699 H         1 <0>         0.4225
     47 H22         8.2068   -3.5238    1.0501 H         1 <0>         0.1547
     48 H23         8.7638    0.7798    2.8782 H         1 <0>         0.3997
     49 H24         2.2599    0.9242    3.5244 H         1 <0>         0.3872
     50 H25         0.6552   -1.5237    1.1924 H         1 <0>         0.4265
@<TRIPOS>BOND
     1    1    2 1
     2    1   28 1
     3    1   29 1
     4    1   30 1
     5    2    3 1
     6    2    4 1
     7    2   13 1
     8    4    5 1
     9    4   31 1
    10    4   32 1
    11    5   10 ar
    12    5    6 ar
    13    6    7 ar
    14    6   33 1
    15    7    8 ar
    16    7   34 1
    17    8    9 ar
    18    8   11 1
    19    9   10 ar
    20    9   35 1
    21   10   36 1
    22   11   12 1
    23   12   37 1
    24   12   38 1
    25   12   39 1
    26   13   14 1
    27   13   40 1
    28   13   50 1
    29   14   15 1
    30   14   41 1
    31   14   42 1
    32   15   16 1
    33   15   17 1
    34   15   27 1
    35   17   22 ar
    36   17   18 ar
    37   18   19 ar
    38   18   43 1
    39   19   20 ar
    40   19   44 1
    41   20   21 ar
    42   20   26 1
    43   21   22 ar
    44   21   23 1
    45   22   45 1
    46   23   24 am
    47   23   46 1
    48   24   25 2
    49   24   47 1
    50   26   48 1
    51   27   49 1
@<TRIPOS>MOLECULE
CHEMBL519240
   51    55     0     0     0
SMALL
USER_CHARGES

@<TRIPOS>ATOM
      1 C1         -0.0518    1.5017   -0.1148 C.3       1 <0>        -0.1240
      2 C2          1.3896    2.0009   -0.1884 C.3       1 <0>        -0.1233
      3 C3          2.1792    1.5324    1.0162 C.3       1 <0>        -0.1236
      4 C4          2.0195    0.0939    1.3795 C.3       1 <0>         0.0936
      5 H1          2.2717   -0.0155    2.4343 H         1 <0>         0.0954
      6 C5          0.6350   -0.5290    1.1646 C.3       1 <0>        -0.0591
      7 H2         -0.0167   -0.3840    2.0262 H         1 <0>         0.1072
      8 C6         -0.0335   -0.0263   -0.0957 C.3       1 <0>        -0.1163
      9 C7          1.0170   -1.9803    0.9762 C.2       1 <0>        -0.3344
     10 C8          2.3328   -2.0225    0.6739 C.2       1 <0>         0.2511
     11 O1          2.8682   -0.7933    0.6365 O.3       1 <0>        -0.2589
     12 C9          3.0235   -3.3350    0.3757 C.3       1 <0>        -0.0898
     13 C10         2.3849   -4.4569    1.1913 C.3       1 <0>        -0.0540
     14 C11         0.8856   -4.4170    1.1377 C.ar      1 <0>        -0.2237
     15 C12         0.2049   -3.1948    1.0601 C.ar      1 <0>         0.3605
     16 N1         -1.1238   -3.1799    1.0574 N.ar      1 <0>        -0.5496
     17 C13        -1.8045   -4.3176    1.0919 C.ar      1 <0>         0.6483
     18 N2         -1.1964   -5.4936    1.1387 N.ar      1 <0>        -0.5521
     19 C14         0.1326   -5.5842    1.1657 C.ar      1 <0>         0.5268
     20 N3          0.7537   -6.8224    1.2213 N.pl3     1 <0>        -0.6706
     21 C15         1.1158   -7.4297    2.5114 C.3       1 <0>         0.1172
     22 C16         0.5808   -8.8652    2.5396 C.3       1 <0>        -0.0241
     23 N4          1.0770   -9.5946    1.3658 N.4       1 <0>        -0.5044
     24 C17         0.5361   -8.9955    0.1392 C.3       1 <0>        -0.0241
     25 C18         1.0638   -7.5690   -0.0077 C.3       1 <0>         0.1164
     26 N5         -3.1878   -4.2751    1.0794 N.pl3     1 <0>        -0.7861
     27 H3         -0.5233    1.8744    0.7945 H         1 <0>         0.0723
     28 H4         -0.6061    1.8511   -0.9859 H         1 <0>         0.0790
     29 H5          1.8567    1.6173   -1.0955 H         1 <0>         0.0679
     30 H6          1.3913    3.0905   -0.2174 H         1 <0>         0.0831
     31 H7          3.2358    1.7200    0.8248 H         1 <0>         0.0919
     32 H8          1.8815    2.1354    1.8741 H         1 <0>         0.0970
     33 H9         -1.0557   -0.4014   -0.1447 H         1 <0>         0.0613
     34 H10         0.5270   -0.3925   -0.9558 H         1 <0>         0.0705
     35 H11         2.9287   -3.5606   -0.6864 H         1 <0>         0.1212
     36 H12         4.0793   -3.2553    0.6345 H         1 <0>         0.1271
     37 H13         2.7271   -5.4157    0.8020 H         1 <0>         0.1112
     38 H14         2.7040   -4.3648    2.2295 H         1 <0>         0.1008
     39 H15         2.2003   -7.4408    2.6194 H         1 <0>         0.1031
     40 H16         0.6696   -6.8565    3.3241 H         1 <0>         0.1198
     41 H17         0.9220   -9.3625    3.4475 H         1 <0>         0.1503
     42 H18        -0.5090   -8.8474    2.5225 H         1 <0>         0.1373
     43 H19         2.0848   -9.5495    1.3446 H         1 <0>         0.4310
     44 H20         0.8444   -9.5888   -0.7216 H         1 <0>         0.1504
     45 H21        -0.5523   -8.9737    0.1947 H         1 <0>         0.1374
     46 H22         0.5833   -7.0878   -0.8596 H         1 <0>         0.1202
     47 H23         2.1430   -7.5944   -0.1584 H         1 <0>         0.1025
     48 H24        -3.6465   -3.4211    1.0456 H         1 <0>         0.4335
     49 H25        -3.6986   -5.0994    1.1043 H         1 <0>         0.4469
     50 H26         0.7871  -10.5594    1.4236 H         1 <0>         0.4402
     51 H27        -1.5976   -2.3339    1.0303 H         1 <0>         0.4460
@<TRIPOS>BOND
     1    1    8 1
     2    1    2 1
     3    1   27 1
     4    1   28 1
     5    2    3 1
     6    2   29 1
     7    2   30 1
     8    3    4 1
     9    3   31 1
    10    3   32 1
    11    4    5 1
    12    4   11 1
    13    4    6 1
    14    6    7 1
    15    6    8 1
    16    6    9 1
    17    8   33 1
    18    8   34 1
    19    9   15 1
    20    9   10 2
    21   10   11 1
    22   10   12 1
    23   12   13 1
    24   12   35 1
    25   12   36 1
    26   13   14 1
    27   13   37 1
    28   13   38 1
    29   14   19 ar
    30   14   15 ar
    31   15   16 ar
    32   16   17 ar
    33   16   51 1
    34   17   18 ar
    35   17   26 1
    36   18   19 ar
    37   19   20 1
    38   20   25 1
    39   20   21 1
    40   21   22 1
    41   21   39 1
    42   21   40 1
    43   22   23 1
    44   22   41 1
    45   22   42 1
    46   23   24 1
    47   23   43 1
    48   23   50 1
    49   24   25 1
    50   24   44 1
    51   24   45 1
    52   25   46 1
    53   25   47 1
    54   26   48 1
    55   26   49 1
@<TRIPOS>MOLECULE
CHEMBL519240__1
   50    54     0     0     0
SMALL
USER_CHARGES

@<TRIPOS>ATOM
      1 C1         -0.0518    1.5017   -0.1148 C.3       1 <0>        -0.1220
      2 C2          1.3896    2.0009   -0.1884 C.3       1 <0>        -0.1192
      3 C3          2.1792    1.5324    1.0162 C.3       1 <0>        -0.1147
      4 C4          2.0195    0.0939    1.3795 C.3       1 <0>         0.0898
      5 H1          2.2717   -0.0155    2.4343 H         1 <0>         0.0758
      6 C5          0.6350   -0.5290    1.1646 C.3       1 <0>        -0.0477
      7 H2         -0.0167   -0.3840    2.0262 H         1 <0>         0.0960
      8 C6         -0.0335   -0.0263   -0.0957 C.3       1 <0>        -0.1049
      9 C7          1.0170   -1.9803    0.9762 C.2       1 <0>        -0.2453
     10 C8          2.3328   -2.0225    0.6739 C.2       1 <0>         0.1401
     11 O1          2.8682   -0.7933    0.6365 O.3       1 <0>        -0.2869
     12 C9          3.0235   -3.3350    0.3757 C.3       1 <0>        -0.0663
     13 C10         2.3849   -4.4569    1.1913 C.3       1 <0>        -0.0450
     14 C11         0.8856   -4.4170    1.1377 C.ar      1 <0>        -0.2541
     15 C12         0.2049   -3.1948    1.0601 C.ar      1 <0>         0.3245
     16 N1         -1.1238   -3.1799    1.0574 N.ar      1 <0>        -0.5564
     17 C13        -1.8045   -4.3176    1.0919 C.ar      1 <0>         0.5906
     18 N2         -1.1964   -5.4936    1.1387 N.ar      1 <0>        -0.6006
     19 C14         0.1326   -5.5842    1.1657 C.ar      1 <0>         0.4501
     20 N3          0.7537   -6.8224    1.2213 N.pl3     1 <0>        -0.6608
     21 C15         1.1158   -7.4297    2.5114 C.3       1 <0>         0.1219
     22 C16         0.5808   -8.8652    2.5396 C.3       1 <0>        -0.0241
     23 N4          1.0770   -9.5946    1.3658 N.4       1 <0>        -0.5018
     24 C17         0.5361   -8.9955    0.1392 C.3       1 <0>        -0.0239
     25 C18         1.0638   -7.5690   -0.0077 C.3       1 <0>         0.1212
     26 N5         -3.1878   -4.2751    1.0794 N.pl3     1 <0>        -0.8176
     27 H3         -0.5233    1.8744    0.7945 H         1 <0>         0.0664
     28 H4         -0.6061    1.8511   -0.9859 H         1 <0>         0.0695
     29 H5          1.8567    1.6173   -1.0955 H         1 <0>         0.0639
     30 H6          1.3913    3.0905   -0.2174 H         1 <0>         0.0723
     31 H7          3.2358    1.7200    0.8248 H         1 <0>         0.0806
     32 H8          1.8815    2.1354    1.8741 H         1 <0>         0.0857
     33 H9         -1.0557   -0.4014   -0.1447 H         1 <0>         0.0725
     34 H10         0.5270   -0.3925   -0.9558 H         1 <0>         0.0586
     35 H11         2.9287   -3.5606   -0.6864 H         1 <0>         0.0972
     36 H12         4.0793   -3.2553    0.6345 H         1 <0>         0.1003
     37 H13         2.7271   -5.4157    0.8020 H         1 <0>         0.0853
     38 H14         2.7040   -4.3648    2.2295 H         1 <0>         0.0768
     39 H15         2.2003   -7.4408    2.6194 H         1 <0>         0.0885
     40 H16         0.6696   -6.8565    3.3241 H         1 <0>         0.1147
     41 H17         0.9220   -9.3625    3.4475 H         1 <0>         0.1413
     42 H18        -0.5090   -8.8474    2.5225 H         1 <0>         0.1345
     43 H19         2.0848   -9.5495    1.3446 H         1 <0>         0.4272
     44 H20         0.8444   -9.5888   -0.7216 H         1 <0>         0.1416
     45 H21        -0.5523   -8.9737    0.1947 H         1 <0>         0.1346
     46 H22         0.5833   -7.0878   -0.8596 H         1 <0>         0.1152
     47 H23         2.1430   -7.5944   -0.1584 H         1 <0>         0.0877
     48 H24        -3.6465   -3.4211    1.0456 H         1 <0>         0.4194
     49 H25        -3.6986   -5.0994    1.1043 H         1 <0>         0.4149
     50 H26         0.7871  -10.5594    1.4236 H         1 <0>         0.4326
@<TRIPOS>BOND
     1    1    8 1
     2    1    2 1
     3    1   27 1
     4    1   28 1
     5    2    3 1
     6    2   29 1
     7    2   30 1
     8    3    4 1
     9    3   31 1
    10    3   32 1
    11    4    5 1
    12    4   11 1
    13    4    6 1
    14    6    7 1
    15    6    8 1
    16    6    9 1
    17    8   33 1
    18    8   34 1
    19    9   15 1
    20    9   10 2
    21   10   11 1
    22   10   12 1
    23   12   13 1
    24   12   35 1
    25   12   36 1
    26   13   14 1
    27   13   37 1
    28   13   38 1
    29   14   19 ar
    30   14   15 ar
    31   15   16 ar
    32   16   17 ar
    33   17   18 ar
    34   17   26 1
    35   18   19 ar
    36   19   20 1
    37   20   25 1
    38   20   21 1
    39   21   22 1
    40   21   39 1
    41   21   40 1
    42   22   23 1
    43   22   41 1
    44   22   42 1
    45   23   24 1
    46   23   43 1
    47   23   50 1
    48   24   25 1
    49   24   44 1
    50   24   45 1
    51   25   46 1
    52   25   47 1
    53   26   48 1
    54   26   49 1
@<TRIPOS>MOLECULE
CHEMBL519240__2
   51    55     0     0     0
SMALL
USER_CHARGES

@<TRIPOS>ATOM
      1 C1         -0.0530    1.5009   -0.1188 C.3       1 <0>        -0.1241
      2 C2          1.3884    2.0000   -0.1944 C.3       1 <0>        -0.1226
      3 C3          2.1794    1.5322    1.0096 C.3       1 <0>        -0.1211
      4 C4          2.0201    0.0940    1.3739 C.3       1 <0>         0.0885
      5 H1          2.2735   -0.0148    2.4285 H         1 <0>         0.0910
      6 C5          0.6353   -0.5290    1.1610 C.3       1 <0>        -0.0474
      7 H2         -0.0154   -0.3835    2.0233 H         1 <0>         0.1079
      8 C6         -0.0346   -0.0270   -0.0987 C.3       1 <0>        -0.1091
      9 C7          1.0170   -1.9805    0.9730 C.2       1 <0>        -0.2880
     10 C8          2.3324   -2.0229    0.6692 C.2       1 <0>         0.2249
     11 O1          2.8679   -0.7937    0.6305 O.3       1 <0>        -0.2629
     12 C9          3.0227   -3.3356    0.3710 C.3       1 <0>        -0.0848
     13 C10         2.3850   -4.4570    1.1880 C.3       1 <0>        -0.0597
     14 C11         0.8856   -4.4170    1.1361 C.ar      1 <0>        -0.1763
     15 C12         0.2049   -3.1948    1.0586 C.ar      1 <0>         0.3893
     16 N1         -1.1238   -3.1799    1.0574 N.ar      1 <0>        -0.5112
     17 C13        -1.8045   -4.3176    1.0935 C.ar      1 <0>         0.6478
     18 N2         -1.1964   -5.4935    1.1402 N.ar      1 <0>        -0.5789
     19 C14         0.1326   -5.5842    1.1657 C.ar      1 <0>         0.4358
     20 N3          0.7537   -6.8224    1.2213 N.pl3     1 <0>        -0.6731
     21 C15         1.1158   -7.4297    2.5114 C.3       1 <0>         0.1064
     22 C16         0.5808   -8.8652    2.5396 C.3       1 <0>        -0.0246
     23 N4          1.0770   -9.5946    1.3658 N.4       1 <0>        -0.5057
     24 C17         0.5361   -8.9955    0.1392 C.3       1 <0>        -0.0245
     25 C18         1.0638   -7.5690   -0.0077 C.3       1 <0>         0.1048
     26 N5         -3.1878   -4.2750    1.0825 N.pl3     1 <0>        -0.7858
     27 H3         -0.5234    1.8742    0.7909 H         1 <0>         0.0704
     28 H4         -0.6083    1.8498   -0.9894 H         1 <0>         0.0754
     29 H5          1.8544    1.6159   -1.1017 H         1 <0>         0.0659
     30 H6          1.3901    3.0896   -0.2240 H         1 <0>         0.0797
     31 H7          3.2357    1.7197    0.8169 H         1 <0>         0.0881
     32 H8          1.8828    2.1357    1.8674 H         1 <0>         0.0950
     33 H9         -1.0570   -0.4021   -0.1463 H         1 <0>         0.0741
     34 H10         0.5248   -0.3938   -0.9593 H         1 <0>         0.0610
     35 H11         2.9266   -3.5619   -0.6909 H         1 <0>         0.1187
     36 H12         4.0788   -3.2558    0.6285 H         1 <0>         0.1259
     37 H13         2.7267   -5.4161    0.7988 H         1 <0>         0.1069
     38 H14         2.7053   -4.3643    2.2258 H         1 <0>         0.1056
     39 H15         2.2003   -7.4408    2.6194 H         1 <0>         0.1105
     40 H16         0.6696   -6.8565    3.3241 H         1 <0>         0.1251
     41 H17         0.9220   -9.3625    3.4475 H         1 <0>         0.1558
     42 H18        -0.5090   -8.8474    2.5225 H         1 <0>         0.1333
     43 H19         2.0848   -9.5495    1.3446 H         1 <0>         0.4347
     44 H20         0.8444   -9.5888   -0.7216 H         1 <0>         0.1561
     45 H21        -0.5523   -8.9737    0.1947 H         1 <0>         0.1330
     46 H22         0.5833   -7.0878   -0.8596 H         1 <0>         0.1249
     47 H23         2.1430   -7.5944   -0.1584 H         1 <0>         0.1103
     48 H24        -3.6465   -3.4210    1.0488 H         1 <0>         0.4503
     49 H25        -3.6987   -5.0992    1.1085 H         1 <0>         0.4297
     50 H26         0.7871  -10.5594    1.4236 H         1 <0>         0.4428
     51 H27        -1.7289   -6.3042    1.1559 H         1 <0>         0.4302
@<TRIPOS>BOND
     1    1    8 1
     2    1    2 1
     3    1   27 1
     4    1   28 1
     5    2    3 1
     6    2   29 1
     7    2   30 1
     8    3    4 1
     9    3   31 1
    10    3   32 1
    11    4    5 1
    12    4   11 1
    13    4    6 1
    14    6    7 1
    15    6    8 1
    16    6    9 1
    17    8   33 1
    18    8   34 1
    19    9   15 1
    20    9   10 2
    21   10   11 1
    22   10   12 1
    23   12   13 1
    24   12   35 1
    25   12   36 1
    26   13   14 1
    27   13   37 1
    28   13   38 1
    29   14   19 ar
    30   14   15 ar
    31   15   16 ar
    32   16   17 ar
    33   17   18 ar
    34   17   26 1
    35   18   19 ar
    36   18   51 1
    37   19   20 1
    38   20   25 1
    39   20   21 1
    40   21   22 1
    41   21   39 1
    42   21   40 1
    43   22   23 1
    44   22   41 1
    45   22   42 1
    46   23   24 1
    47   23   43 1
    48   23   50 1
    49   24   25 1
    50   24   44 1
    51   24   45 1
    52   25   46 1
    53   25   47 1
    54   26   48 1
    55   26   49 1
@<TRIPOS>MOLECULE
CHEMBL461301
   68    71     0     0     0
SMALL
USER_CHARGES

@<TRIPOS>ATOM
      1 C1         -0.0904    2.9666    1.9158 C.ar      1 <0>        -0.0980
      2 C2          1.1410    3.5596    1.7066 C.ar      1 <0>        -0.0980
      3 C3          2.2860    2.7858    1.6820 C.ar      1 <0>        -0.1286
      4 C4          2.2006    1.4184    1.8661 C.ar      1 <0>        -0.0996
      5 C5          0.9689    0.8246    2.0754 C.ar      1 <0>        -0.0304
      6 C6         -0.1770    1.5998    2.1003 C.ar      1 <0>        -0.0926
      7 Cl1         0.8608   -0.8926    2.3061 Cl        1 <0>        -0.0495
      8 C7          3.6278    3.4329    1.4540 C.3       1 <0>         0.1354
      9 H1          3.5853    4.4767    1.7652 H         1 <0>         0.1356
     10 C8          3.9843    3.3578   -0.0320 C.3       1 <0>        -0.0436
     11 N1          5.2922    3.9886   -0.2542 N.4       1 <0>        -0.5062
     12 C9          5.6345    3.9165   -1.6810 C.3       1 <0>         0.0012
     13 C10         6.9967    4.5735   -1.9125 C.3       1 <0>         0.0246
     14 O1          8.0091    3.8198   -1.2423 O.3       1 <0>        -0.3304
     15 C11         9.2857    4.2715   -1.3480 C.ar      1 <0>         0.0939
     16 C12         9.5557    5.4214   -2.0784 C.ar      1 <0>        -0.1950
     17 C13        10.8502    5.8824   -2.1876 C.ar      1 <0>        -0.0773
     18 C14        11.8894    5.1929   -1.5632 C.ar      1 <0>        -0.0326
     19 C15        11.6149    4.0386   -0.8300 C.ar      1 <0>        -0.0784
     20 C16        10.3176    3.5855   -0.7206 C.ar      1 <0>        -0.1332
     21 C17        13.2823    5.6854   -1.6789 C.ar      1 <0>        -0.0423
     22 C18        13.5530    6.8454   -2.4100 C.ar      1 <0>        -0.1587
     23 C19        14.8319    7.3062   -2.5220 C.ar      1 <0>        -0.0507
     24 C20        15.8838    6.6188   -1.9041 C.ar      1 <0>        -0.1498
     25 C21        15.6188    5.4525   -1.1674 C.ar      1 <0>         0.1626
     26 C22        14.3176    4.9943   -1.0540 C.ar      1 <0>        -0.2155
     27 O2         16.6324    4.7811   -0.5665 O.3       1 <0>        -0.2547
     28 C23        16.3050    3.5422    0.0659 C.3       1 <0>         0.0788
     29 C24        15.7995    3.8117    1.4846 C.3       1 <0>        -0.1468
     30 C25        15.4489    2.4852    2.1617 C.3       1 <0>        -0.1128
     31 C26        16.6948    1.5994    2.2239 C.3       1 <0>        -0.1232
     32 C27        17.2003    1.3299    0.8052 C.3       1 <0>        -0.1138
     33 C28        17.5509    2.6564    0.1281 C.3       1 <0>        -0.1147
     34 C29        17.2614    7.1160   -2.0265 C.2       1 <0>         0.5176
     35 O3         17.4904    8.1320   -2.6690 O.co2     1 <0>        -0.6919
     36 O4         18.1795    6.5140   -1.4858 O.co2     1 <0>        -0.6624
     37 O5          4.6228    2.7483    2.2178 O.3       1 <0>        -0.5444
     38 H2         -0.9843    3.5723    1.9394 H         1 <0>         0.1423
     39 H3          1.2081    4.6278    1.5621 H         1 <0>         0.1354
     40 H4          3.0953    0.8139    1.8462 H         1 <0>         0.1340
     41 H5         -1.1389    1.1367    2.2637 H         1 <0>         0.1424
     42 H6          4.0267    2.3140   -0.3431 H         1 <0>         0.1380
     43 H7          3.2253    3.8800   -0.6145 H         1 <0>         0.1461
     44 H8          5.2529    4.9548    0.0338 H         1 <0>         0.4293
     45 H9          5.6769    2.8727   -1.9921 H         1 <0>         0.1424
     46 H10         4.8756    4.4387   -2.2636 H         1 <0>         0.1506
     47 H11         7.2107    4.5995   -2.9810 H         1 <0>         0.1102
     48 H12         6.9811    5.5903   -1.5201 H         1 <0>         0.0869
     49 H13         8.7505    5.9549   -2.5617 H         1 <0>         0.1257
     50 H14        11.0595    6.7764   -2.7563 H         1 <0>         0.1360
     51 H15        12.4175    3.5022   -0.3456 H         1 <0>         0.1358
     52 H16        10.1039    2.6939   -0.1499 H         1 <0>         0.1311
     53 H17        12.7455    7.3793   -2.8889 H         1 <0>         0.1163
     54 H18        15.0337    8.2031   -3.0888 H         1 <0>         0.1360
     55 H19        14.1061    4.1003   -0.4861 H         1 <0>         0.1251
     56 H20        15.5277    3.0363   -0.5067 H         1 <0>         0.0619
     57 H21        16.5768    4.3176    2.0573 H         1 <0>         0.0766
     58 H22        14.9119    4.4428    1.4403 H         1 <0>         0.0651
     59 H23        15.0887    2.6773    3.1724 H         1 <0>         0.0637
     60 H24        14.6716    1.9793    1.5890 H         1 <0>         0.0580
     61 H25        17.4721    2.1053    2.7966 H         1 <0>         0.0661
     62 H26        16.4450    0.6544    2.7063 H         1 <0>         0.0613
     63 H27        18.0879    0.6988    0.8495 H         1 <0>         0.0691
     64 H28        16.4230    0.8240    0.2325 H         1 <0>         0.0600
     65 H29        17.9110    2.4643   -0.8826 H         1 <0>         0.0729
     66 H30        18.3282    3.1623    0.7008 H         1 <0>         0.0777
     67 H31         4.7156    1.8122    1.9936 H         1 <0>         0.3895
     68 H32         5.9947    3.5052    0.2850 H         1 <0>         0.4401
@<TRIPOS>BOND
     1    1    6 ar
     2    1    2 ar
     3    1   38 1
     4    2    3 ar
     5    2   39 1
     6    3    4 ar
     7    3    8 1
     8    4    5 ar
     9    4   40 1
    10    5    6 ar
    11    5    7 1
    12    6   41 1
    13    8    9 1
    14    8   10 1
    15    8   37 1
    16   10   11 1
    17   10   42 1
    18   10   43 1
    19   11   12 1
    20   11   44 1
    21   11   68 1
    22   12   13 1
    23   12   45 1
    24   12   46 1
    25   13   14 1
    26   13   47 1
    27   13   48 1
    28   14   15 1
    29   15   20 ar
    30   15   16 ar
    31   16   17 ar
    32   16   49 1
    33   17   18 ar
    34   17   50 1
    35   18   19 ar
    36   18   21 1
    37   19   20 ar
    38   19   51 1
    39   20   52 1
    40   21   26 ar
    41   21   22 ar
    42   22   23 ar
    43   22   53 1
    44   23   24 ar
    45   23   54 1
    46   24   25 ar
    47   24   34 1
    48   25   26 ar
    49   25   27 1
    50   26   55 1
    51   27   28 1
    52   28   33 1
    53   28   29 1
    54   28   56 1
    55   29   30 1
    56   29   57 1
    57   29   58 1
    58   30   31 1
    59   30   59 1
    60   30   60 1
    61   31   32 1
    62   31   61 1
    63   31   62 1
    64   32   33 1
    65   32   63 1
    66   32   64 1
    67   33   65 1
    68   33   66 1
    69   34   35 2
    70   34   36 1
    71   37   67 1
@<TRIPOS>MOLECULE
CHEMBL461301__1
   67    70     0     0     0
SMALL
USER_CHARGES

@<TRIPOS>ATOM
      1 C1         -0.1207    2.9567    1.9264 C.ar      1 <0>        -0.1037
      2 C2          1.1117    3.5476    1.7174 C.ar      1 <0>        -0.1061
      3 C3          2.2552    2.7716    1.6908 C.ar      1 <0>        -0.1036
      4 C4          2.1672    1.4041    1.8726 C.ar      1 <0>        -0.1014
      5 C5          0.9345    0.8123    2.0817 C.ar      1 <0>        -0.0307
      6 C6         -0.2099    1.5898    2.1087 C.ar      1 <0>        -0.1110
      7 Cl1         0.8232   -0.9050    2.3096 Cl        1 <0>        -0.0665
      8 C7          3.5981    3.4165    1.4629 C.3       1 <0>         0.1529
      9 H1          3.5579    4.4598    1.7758 H         1 <0>         0.1091
     10 C8          3.9535    3.3431   -0.0234 C.3       1 <0>         0.0317
     11 N1          5.2625    3.9717   -0.2455 N.3       1 <0>        -0.6724
     12 C9          5.6374    3.9197   -1.6649 C.3       1 <0>         0.0609
     13 C10         7.0031    4.5824   -1.8563 C.3       1 <0>         0.0625
     14 O1          8.0016    3.8216   -1.1734 O.3       1 <0>        -0.2982
     15 C11         9.2793    4.2771   -1.2437 C.ar      1 <0>         0.1225
     16 C12         9.5633    5.4374   -1.9521 C.ar      1 <0>        -0.2081
     17 C13        10.8589    5.9024   -2.0254 C.ar      1 <0>        -0.0724
     18 C14        11.8852    5.2064   -1.3868 C.ar      1 <0>        -0.0646
     19 C15        11.5966    4.0416   -0.6759 C.ar      1 <0>        -0.0741
     20 C16        10.2981    3.5846   -0.6024 C.ar      1 <0>        -0.1466
     21 C17        13.2793    5.7031   -1.4640 C.ar      1 <0>        -0.0212
     22 C18        13.5639    6.8734   -2.1728 C.ar      1 <0>        -0.1660
     23 C19        14.8440    7.3383   -2.2493 C.ar      1 <0>        -0.0489
     24 C20        15.8831    6.6445   -1.6170 C.ar      1 <0>        -0.1629
     25 C21        15.6040    5.4677   -0.9024 C.ar      1 <0>         0.1625
     26 C22        14.3015    5.0055   -0.8251 C.ar      1 <0>        -0.2213
     27 O2         16.6051    4.7901   -0.2877 O.3       1 <0>        -0.2572
     28 C23        16.2661    3.5420    0.3201 C.3       1 <0>         0.0780
     29 C24        15.7277    3.7912    1.7304 C.3       1 <0>        -0.1465
     30 C25        15.3647    2.4549    2.3812 C.3       1 <0>        -0.1144
     31 C26        16.6109    1.5707    2.4598 C.3       1 <0>        -0.1218
     32 C27        17.1492    1.3216    1.0494 C.3       1 <0>        -0.1140
     33 C28        17.5122    2.6578    0.3987 C.3       1 <0>        -0.1130
     34 C29        17.2620    7.1459   -1.7010 C.2       1 <0>         0.5209
     35 O3         17.5034    8.1710   -2.3243 O.co2     1 <0>        -0.6973
     36 O4         18.1688    6.5384   -1.1478 O.co2     1 <0>        -0.6673
     37 O5          4.5922    2.7286    2.2249 O.3       1 <0>        -0.5364
     38 H2         -1.0134    3.5641    1.9515 H         1 <0>         0.1344
     39 H3          1.1809    4.6159    1.5745 H         1 <0>         0.1304
     40 H4          3.0607    0.7978    1.8511 H         1 <0>         0.1333
     41 H5         -1.1726    1.1283    2.2719 H         1 <0>         0.1343
     42 H6          3.9937    2.2997   -0.3363 H         1 <0>         0.0787
     43 H7          3.1952    3.8678   -0.6046 H         1 <0>         0.0406
     44 H8          5.2703    4.9211    0.0960 H         1 <0>         0.3434
     45 H9          5.6893    2.8803   -1.9892 H         1 <0>         0.0847
     46 H10         4.8908    4.4484   -2.2575 H         1 <0>         0.0507
     47 H11         7.2413    4.6235   -2.9191 H         1 <0>         0.0671
     48 H12         6.9763    5.5937   -1.4506 H         1 <0>         0.0611
     49 H13         8.7682    5.9759   -2.4463 H         1 <0>         0.1243
     50 H14        11.0792    6.8044   -2.5770 H         1 <0>         0.1291
     51 H15        12.3891    3.5002   -0.1806 H         1 <0>         0.1290
     52 H16        10.0734    2.6849   -0.0489 H         1 <0>         0.1295
     53 H17        12.7664    7.4123   -2.6628 H         1 <0>         0.1159
     54 H18        15.0567    8.2432   -2.7991 H         1 <0>         0.1325
     55 H19        14.0791    4.1034   -0.2743 H         1 <0>         0.1249
     56 H20        15.5032    3.0425   -0.2770 H         1 <0>         0.0632
     57 H21        16.4906    4.2907    2.3275 H         1 <0>         0.0743
     58 H22        14.8400    4.4211    1.6745 H         1 <0>         0.0674
     59 H23        14.9812    2.6324    3.3859 H         1 <0>         0.0638
     60 H24        14.6018    1.9554    1.7841 H         1 <0>         0.0604
     61 H25        17.3737    2.0702    3.0569 H         1 <0>         0.0642
     62 H26        16.3522    0.6187    2.9234 H         1 <0>         0.0603
     63 H27        18.0370    0.6916    1.1054 H         1 <0>         0.0668
     64 H28        16.3863    0.8220    0.4523 H         1 <0>         0.0609
     65 H29        17.8957    2.4803   -0.6061 H         1 <0>         0.0714
     66 H30        18.2751    3.1574    0.9958 H         1 <0>         0.0758
     67 H31         4.6831    1.7927    1.9991 H         1 <0>         0.3742
@<TRIPOS>BOND
     1    1    6 ar
     2    1    2 ar
     3    1   38 1
     4    2    3 ar
     5    2   39 1
     6    3    4 ar
     7    3    8 1
     8    4    5 ar
     9    4   40 1
    10    5    6 ar
    11    5    7 1
    12    6   41 1
    13    8    9 1
    14    8   10 1
    15    8   37 1
    16   10   11 1
    17   10   42 1
    18   10   43 1
    19   11   12 1
    20   11   44 1
    21   12   13 1
    22   12   45 1
    23   12   46 1
    24   13   14 1
    25   13   47 1
    26   13   48 1
    27   14   15 1
    28   15   20 ar
    29   15   16 ar
    30   16   17 ar
    31   16   49 1
    32   17   18 ar
    33   17   50 1
    34   18   19 ar
    35   18   21 1
    36   19   20 ar
    37   19   51 1
    38   20   52 1
    39   21   26 ar
    40   21   22 ar
    41   22   23 ar
    42   22   53 1
    43   23   24 ar
    44   23   54 1
    45   24   25 ar
    46   24   34 1
    47   25   26 ar
    48   25   27 1
    49   26   55 1
    50   27   28 1
    51   28   33 1
    52   28   29 1
    53   28   56 1
    54   29   30 1
    55   29   57 1
    56   29   58 1
    57   30   31 1
    58   30   59 1
    59   30   60 1
    60   31   32 1
    61   31   61 1
    62   31   62 1
    63   32   33 1
    64   32   63 1
    65   32   64 1
    66   33   65 1
    67   33   66 1
    68   34   35 2
    69   34   36 1
    70   37   67 1
@<TRIPOS>MOLECULE
CHEMBL270027
   57    59     0     0     0
SMALL
USER_CHARGES

@<TRIPOS>ATOM
      1 C1         -0.0167    1.3777    0.0096 C.ar      1 <0>        -0.0974
      2 C2          1.1710    2.0855    0.0021 C.ar      1 <0>        -0.0979
      3 C3          2.3777    1.4116   -0.0130 C.ar      1 <0>        -0.1305
      4 C4          2.3977    0.0294   -0.0210 C.ar      1 <0>        -0.0996
      5 C5          1.2098   -0.6793   -0.0135 C.ar      1 <0>        -0.0301
      6 C6          0.0021   -0.0041    0.0020 C.ar      1 <0>        -0.0916
      7 Cl1         1.2341   -2.4151   -0.0242 Cl        1 <0>        -0.0490
      8 C7          3.6718    2.1839   -0.0212 C.3       1 <0>         0.1373
      9 H1          3.5107    3.1675    0.4199 H         1 <0>         0.1351
     10 C8          4.1605    2.3449   -1.4621 C.3       1 <0>        -0.0444
     11 N1          5.4219    3.0977   -1.4701 N.4       1 <0>        -0.5046
     12 C9          5.8911    3.2523   -2.8536 C.3       1 <0>        -0.0088
     13 C10         7.2049    4.0363   -2.8619 C.3       1 <0>        -0.0953
     14 C11         7.6862    4.1950   -4.2811 C.ar      1 <0>        -0.1212
     15 C12         8.5145    3.2402   -4.8409 C.ar      1 <0>        -0.1056
     16 C13         8.9560    3.3857   -6.1427 C.ar      1 <0>        -0.1104
     17 C14         8.5689    4.4857   -6.8850 C.ar      1 <0>        -0.0461
     18 C15         7.7399    5.4401   -6.3255 C.ar      1 <0>        -0.1107
     19 C16         7.2950    5.2924   -5.0251 C.ar      1 <0>        -0.1055
     20 C17         9.0510    4.6449   -8.3039 C.3       1 <0>        -0.0393
     21 C18         8.0755    3.9835   -9.2430 C.ar      1 <0>        -0.1447
     22 C19         8.2342    2.6513   -9.5771 C.ar      1 <0>        -0.0734
     23 C20         7.3416    2.0428  -10.4382 C.ar      1 <0>        -0.1596
     24 C21         6.2850    2.7696  -10.9674 C.ar      1 <0>         0.1447
     25 C22         6.1277    4.1061  -10.6302 C.ar      1 <0>        -0.2161
     26 C23         7.0201    4.7085   -9.7647 C.ar      1 <0>        -0.0708
     27 O1          5.4058    2.1734  -11.8150 O.3       1 <0>        -0.2797
     28 C24         4.3424    2.9827  -12.3213 C.3       1 <0>        -0.0072
     29 C25         3.4756    2.1576  -13.2374 C.2       1 <0>         0.4998
     30 O2          3.7438    0.9853  -13.4381 O.co2     1 <0>        -0.6695
     31 O3          2.5063    2.6625  -13.7778 O.co2     1 <0>        -0.6843
     32 O4          4.6537    1.4761    0.7385 O.3       1 <0>        -0.5476
     33 H2         -0.9592    1.9048    0.0259 H         1 <0>         0.1427
     34 H3          1.1559    3.1654    0.0076 H         1 <0>         0.1351
     35 H4          3.3407   -0.4970   -0.0336 H         1 <0>         0.1333
     36 H5         -0.9257   -0.5568    0.0079 H         1 <0>         0.1430
     37 H6          4.3215    1.3613   -1.9032 H         1 <0>         0.1381
     38 H7          3.4115    2.8848   -2.0416 H         1 <0>         0.1467
     39 H8          5.2728    4.0082   -1.0618 H         1 <0>         0.4284
     40 H9          6.0522    2.2687   -3.2947 H         1 <0>         0.1341
     41 H10         5.1422    3.7921   -3.4330 H         1 <0>         0.1347
     42 H11         7.0438    5.0200   -2.4208 H         1 <0>         0.0935
     43 H12         7.9539    3.4965   -2.2824 H         1 <0>         0.0937
     44 H13         8.8169    2.3807   -4.2610 H         1 <0>         0.1218
     45 H14         9.6037    2.6401   -6.5798 H         1 <0>         0.1280
     46 H15         7.4378    6.2997   -6.9053 H         1 <0>         0.1274
     47 H16         6.6443    6.0361   -4.5892 H         1 <0>         0.1217
     48 H17         9.1260    5.7051   -8.5454 H         1 <0>         0.0819
     49 H18        10.0303    4.1780   -8.4093 H         1 <0>         0.0826
     50 H19         9.0569    2.0859   -9.1649 H         1 <0>         0.1213
     51 H20         7.4664    1.0023  -10.6994 H         1 <0>         0.1307
     52 H21         5.3060    4.6740  -11.0410 H         1 <0>         0.1288
     53 H22         6.8955    5.7477   -9.4984 H         1 <0>         0.1170
     54 H23         3.7422    3.3550  -11.4911 H         1 <0>         0.0582
     55 H24         4.7583    3.8243  -12.8751 H         1 <0>         0.0609
     56 H25         4.8478    0.5905    0.4023 H         1 <0>         0.3893
     57 H26         6.1152    2.5980   -0.9337 H         1 <0>         0.4310
@<TRIPOS>BOND
     1    1    6 ar
     2    1    2 ar
     3    1   33 1
     4    2    3 ar
     5    2   34 1
     6    3    4 ar
     7    3    8 1
     8    4    5 ar
     9    4   35 1
    10    5    6 ar
    11    5    7 1
    12    6   36 1
    13    8    9 1
    14    8   10 1
    15    8   32 1
    16   10   11 1
    17   10   37 1
    18   10   38 1
    19   11   12 1
    20   11   39 1
    21   11   57 1
    22   12   13 1
    23   12   40 1
    24   12   41 1
    25   13   14 1
    26   13   42 1
    27   13   43 1
    28   14   19 ar
    29   14   15 ar
    30   15   16 ar
    31   15   44 1
    32   16   17 ar
    33   16   45 1
    34   17   18 ar
    35   17   20 1
    36   18   19 ar
    37   18   46 1
    38   19   47 1
    39   20   21 1
    40   20   48 1
    41   20   49 1
    42   21   26 ar
    43   21   22 ar
    44   22   23 ar
    45   22   50 1
    46   23   24 ar
    47   23   51 1
    48   24   25 ar
    49   24   27 1
    50   25   26 ar
    51   25   52 1
    52   26   53 1
    53   27   28 1
    54   28   29 1
    55   28   54 1
    56   28   55 1
    57   29   30 2
    58   29   31 1
    59   32   56 1
@<TRIPOS>MOLECULE
CHEMBL27
   41    42     0     0     0
SMALL
USER_CHARGES

@<TRIPOS>ATOM
      1 C1         -0.0187    1.5258    0.0104 C.3       1 <0>        -0.1864
      2 C2          0.0021   -0.0041    0.0020 C.3       1 <0>         0.0237
      3 C3          0.7421   -0.5109    1.2415 C.3       1 <0>        -0.1853
      4 N1         -1.3761   -0.5125    0.0124 N.4       1 <0>        -0.5024
      5 C4         -2.0500   -0.1262   -1.2343 C.3       1 <0>        -0.0455
      6 C5         -3.4854   -0.6557   -1.2235 C.3       1 <0>         0.0867
      7 C6         -4.1475   -0.3621   -2.5712 C.3       1 <0>         0.0290
      8 O1         -5.4460   -0.9578   -2.6037 O.3       1 <0>        -0.2976
      9 C7         -6.1730   -0.7902   -3.7385 C.ar      1 <0>         0.1358
     10 C8         -5.6568   -0.0834   -4.7882 C.ar      1 <0>        -0.2166
     11 C9         -6.3892    0.0973   -5.9580 C.ar      1 <0>        -0.0839
     12 C10        -7.6399   -0.4245   -6.0915 C.ar      1 <0>        -0.1302
     13 C11        -8.2062   -1.1581   -5.0353 C.ar      1 <0>        -0.0207
     14 C12        -7.4628   -1.3490   -3.8442 C.ar      1 <0>        -0.0669
     15 C13        -8.0269   -2.0859   -2.7904 C.ar      1 <0>        -0.0916
     16 C14        -9.2755   -2.6105   -2.9280 C.ar      1 <0>        -0.1198
     17 C15       -10.0052   -2.4276   -4.1011 C.ar      1 <0>        -0.0996
     18 C16        -9.4946   -1.7103   -5.1390 C.ar      1 <0>        -0.1126
     19 O2         -4.2221   -0.0137   -0.1809 O.3       1 <0>        -0.5426
     20 H1          1.0039    1.9031    0.0027 H         1 <0>         0.1080
     21 H2         -0.5459    1.8868   -0.8726 H         1 <0>         0.0796
     22 H3         -0.5289    1.8773    0.9072 H         1 <0>         0.0835
     23 H4          0.5123   -0.3556   -0.8948 H         1 <0>         0.1399
     24 H5          0.2319   -0.1594    2.1383 H         1 <0>         0.0829
     25 H6          0.7568   -1.6008    1.2356 H         1 <0>         0.0831
     26 H7          1.7647   -0.1336    1.2338 H         1 <0>         0.1084
     27 H8         -1.3629   -1.5185    0.0898 H         1 <0>         0.4304
     28 H9         -2.0643    0.9605   -1.3179 H         1 <0>         0.1411
     29 H10        -1.5132   -0.5489   -2.0836 H         1 <0>         0.1463
     30 H11        -3.4743   -1.7319   -1.0509 H         1 <0>         0.1348
     31 H12        -4.2389    0.7159   -2.7039 H         1 <0>         0.0781
     32 H13        -3.5374   -0.7766   -3.3737 H         1 <0>         0.0827
     33 H14        -4.6670    0.3413   -4.7087 H         1 <0>         0.1233
     34 H15        -5.9587    0.6606   -6.7727 H         1 <0>         0.1282
     35 H16        -8.1947   -0.2748   -7.0059 H         1 <0>         0.1330
     36 H17        -7.4729   -2.2360   -1.8755 H         1 <0>         0.1299
     37 H18        -9.7069   -3.1772   -2.1160 H         1 <0>         0.1276
     38 H19       -10.9936   -2.8547   -4.1849 H         1 <0>         0.1293
     39 H20       -10.0715   -1.5762   -6.0421 H         1 <0>         0.1342
     40 H21        -4.2734    0.9478   -0.2701 H         1 <0>         0.3904
     41 H22        -1.8730   -0.1212    0.7986 H         1 <0>         0.4317
@<TRIPOS>BOND
     1    1    2 1
     2    1   20 1
     3    1   21 1
     4    1   22 1
     5    2    3 1
     6    2    4 1
     7    2   23 1
     8    3   24 1
     9    3   25 1
    10    3   26 1
    11    4    5 1
    12    4   27 1
    13    4   41 1
    14    5    6 1
    15    5   28 1
    16    5   29 1
    17    6    7 1
    18    6   19 1
    19    6   30 1
    20    7    8 1
    21    7   31 1
    22    7   32 1
    23    8    9 1
    24    9   14 ar
    25    9   10 ar
    26   10   11 ar
    27   10   33 1
    28   11   12 ar
    29   11   34 1
    30   12   13 ar
    31   12   35 1
    32   13   18 ar
    33   13   14 ar
    34   14   15 ar
    35   15   16 ar
    36   15   36 1
    37   16   17 ar
    38   16   37 1
    39   17   18 ar
    40   17   38 1
    41   18   39 1
    42   19   40 1
@<TRIPOS>MOLECULE
CHEMBL27__1
   41    42     0     0     0
SMALL
USER_CHARGES

@<TRIPOS>ATOM
      1 C1         -0.0187    1.5258    0.0104 C.3       1 <0>        -0.1868
      2 C2          0.0021   -0.0041    0.0020 C.3       1 <0>         0.0239
      3 C3          0.7421   -0.5109    1.2415 C.3       1 <0>        -0.1852
      4 N1         -1.3761   -0.5125    0.0124 N.4       1 <0>        -0.5018
      5 C4         -2.0500   -0.1262   -1.2343 C.3       1 <0>        -0.0456
      6 C5         -3.4854   -0.6557   -1.2235 C.3       1 <0>         0.0866
      7 C6         -4.1873   -0.2533   -2.5220 C.3       1 <0>         0.0290
      8 O1         -5.5600   -0.6460   -2.4630 O.3       1 <0>        -0.2976
      9 C7         -6.3301   -0.3603   -3.5445 C.ar      1 <0>         0.1358
     10 C8         -5.7871    0.2702   -4.6286 C.ar      1 <0>        -0.2166
     11 C9         -6.5629    0.5699   -5.7447 C.ar      1 <0>        -0.0839
     12 C10        -7.8843    0.2439   -5.7897 C.ar      1 <0>        -0.1302
     13 C11        -8.4805   -0.4055   -4.6955 C.ar      1 <0>        -0.0207
     14 C12        -7.6937   -0.7172   -3.5589 C.ar      1 <0>        -0.0669
     15 C13        -8.2884   -1.3701   -2.4672 C.ar      1 <0>        -0.0916
     16 C14        -9.6084   -1.6991   -2.5165 C.ar      1 <0>        -0.1198
     17 C15       -10.3815   -1.3976   -3.6361 C.ar      1 <0>        -0.0996
     18 C16        -9.8416   -0.7560   -4.7081 C.ar      1 <0>        -0.1126
     19 O2         -3.4667   -2.0804   -1.1139 O.3       1 <0>        -0.5435
     20 H1          1.0039    1.9031    0.0027 H         1 <0>         0.1081
     21 H2         -0.5459    1.8868   -0.8726 H         1 <0>         0.0803
     22 H3         -0.5289    1.8773    0.9072 H         1 <0>         0.0836
     23 H4          0.5123   -0.3556   -0.8948 H         1 <0>         0.1393
     24 H5          0.2319   -0.1594    2.1383 H         1 <0>         0.0829
     25 H6          0.7568   -1.6008    1.2356 H         1 <0>         0.0831
     26 H7          1.7647   -0.1336    1.2338 H         1 <0>         0.1083
     27 H8         -1.3629   -1.5185    0.0898 H         1 <0>         0.4333
     28 H9         -2.0643    0.9605   -1.3179 H         1 <0>         0.1475
     29 H10        -1.5132   -0.5489   -2.0836 H         1 <0>         0.1398
     30 H11        -4.0222   -0.2330   -0.3742 H         1 <0>         0.1356
     31 H12        -4.1237    0.8273   -2.6496 H         1 <0>         0.0828
     32 H13        -3.7039   -0.7477   -3.3646 H         1 <0>         0.0780
     33 H14        -4.7413    0.5399   -4.6191 H         1 <0>         0.1233
     34 H15        -6.1098    1.0693   -6.5883 H         1 <0>         0.1282
     35 H16        -8.4722    0.4840   -6.6634 H         1 <0>         0.1330
     36 H17        -7.7014   -1.6104   -1.5931 H         1 <0>         0.1299
     37 H18       -10.0632   -2.2016   -1.6756 H         1 <0>         0.1276
     38 H19       -11.4266   -1.6698   -3.6500 H         1 <0>         0.1293
     39 H20       -10.4528   -0.5282   -5.5689 H         1 <0>         0.1342
     40 H21        -3.0042   -2.5245   -1.8377 H         1 <0>         0.3902
     41 H22        -1.8730   -0.1212    0.7986 H         1 <0>         0.4286
@<TRIPOS>BOND
     1    1    2 1
     2    1   20 1
     3    1   21 1
     4    1   22 1
     5    2    3 1
     6    2    4 1
     7    2   23 1
     8    3   24 1
     9    3   25 1
    10    3   26 1
    11    4    5 1
    12    4   27 1
    13    4   41 1
    14    5    6 1
    15    5   28 1
    16    5   29 1
    17    6    7 1
    18    6   19 1
    19    6   30 1
    20    7    8 1
    21    7   31 1
    22    7   32 1
    23    8    9 1
    24    9   14 ar
    25    9   10 ar
    26   10   11 ar
    27   10   33 1
    28   11   12 ar
    29   11   34 1
    30   12   13 ar
    31   12   35 1
    32   13   18 ar
    33   13   14 ar
    34   14   15 ar
    35   15   16 ar
    36   15   36 1
    37   16   17 ar
    38   16   37 1
    39   17   18 ar
    40   17   38 1
    41   18   39 1
    42   19   40 1
@<TRIPOS>MOLECULE
CHEMBL399440
   47    49     0     0     0
SMALL
USER_CHARGES

@<TRIPOS>ATOM
      1 C1         -0.0184    1.5028    0.0103 C.3       1 <0>        -0.0762
      2 C2          0.0021   -0.0041    0.0020 C.2       1 <0>        -0.0214
      3 C3         -1.0759   -0.8254    0.0024 C.2       1 <0>         0.0100
      4 N1         -0.6147   -2.0961   -0.0071 N.2       1 <0>        -0.4788
      5 C4          0.6862   -2.0667   -0.0131 C.2       1 <0>         0.1825
      6 O1          1.0953   -0.7910   -0.0131 O.3       1 <0>        -0.1970
      7 C5         -2.4997   -0.4071    0.0120 C.ar      1 <0>        -0.0227
      8 C6         -2.8867    0.7367    0.7079 C.ar      1 <0>        -0.0701
      9 C7         -4.2108    1.1232    0.7146 C.ar      1 <0>        -0.1360
     10 C8         -5.1574    0.3743    0.0291 C.ar      1 <0>         0.1154
     11 C9         -4.7749   -0.7654   -0.6648 C.ar      1 <0>        -0.1994
     12 C10        -3.4516   -1.1540   -0.6796 C.ar      1 <0>        -0.0498
     13 O2         -6.4613    0.7574    0.0379 O.3       1 <0>        -0.3279
     14 C11        -7.3823   -0.0591   -0.6881 C.3       1 <0>         0.0240
     15 C12        -8.7905    0.5258   -0.5634 C.3       1 <0>         0.0006
     16 N2         -8.8350    1.8394   -1.2194 N.4       1 <0>        -0.5059
     17 C13       -10.1871    2.4010   -1.0996 C.3       1 <0>        -0.0436
     18 C14       -10.2335    3.7692   -1.7828 C.3       1 <0>         0.1417
     19 H1         -9.9784    3.6579   -2.8367 H         1 <0>         0.1337
     20 C15       -11.6206    4.3453   -1.6599 C.ar      1 <0>        -0.2005
     21 C16       -12.5459    4.1712   -2.6780 C.ar      1 <0>        -0.0549
     22 C17       -13.8098    4.7187   -2.5215 C.ar      1 <0>        -0.1643
     23 C18       -14.1036    5.4152   -1.3643 C.ar      1 <0>         0.1227
     24 N3        -13.1983    5.5614   -0.4169 N.ar      1 <0>        -0.4747
     25 C19       -11.9882    5.0490   -0.5289 C.ar      1 <0>         0.1176
     26 O3         -9.2960    4.6467   -1.1559 O.3       1 <0>        -0.5451
     27 H2          1.0042    1.8801    0.0026 H         1 <0>         0.0858
     28 H3         -0.5455    1.8639   -0.8728 H         1 <0>         0.0922
     29 H4         -0.5286    1.8543    0.9071 H         1 <0>         0.0916
     30 H5          1.3325   -2.9320   -0.0211 H         1 <0>         0.2549
     31 H6         -2.1507    1.3196    1.2416 H         1 <0>         0.1402
     32 H7         -4.5113    2.0093    1.2540 H         1 <0>         0.1384
     33 H8         -5.5137   -1.3461   -1.1972 H         1 <0>         0.1311
     34 H9         -3.1539   -2.0383   -1.2234 H         1 <0>         0.1359
     35 H10        -7.0925   -0.0878   -1.7385 H         1 <0>         0.0888
     36 H11        -7.3712   -1.0699   -0.2804 H         1 <0>         0.1121
     37 H12        -9.5056   -0.1435   -1.0416 H         1 <0>         0.1524
     38 H13        -9.0457    0.6371    0.4905 H         1 <0>         0.1441
     39 H14        -8.1731    2.4590   -0.7767 H         1 <0>         0.4395
     40 H15       -10.9023    1.7317   -1.5778 H         1 <0>         0.1456
     41 H16       -10.4423    2.5124   -0.0457 H         1 <0>         0.1391
     42 H17       -12.2879    3.6223   -3.5716 H         1 <0>         0.1410
     43 H18       -14.5554    4.6030   -3.2943 H         1 <0>         0.1472
     44 H19       -15.0860    5.8448   -1.2347 H         1 <0>         0.1673
     45 H20       -11.2749    5.1849    0.2705 H         1 <0>         0.1533
     46 H21        -9.4622    4.7922   -0.2144 H         1 <0>         0.3904
     47 H22        -8.5989    1.7364   -2.1949 H         1 <0>         0.4291
@<TRIPOS>BOND
     1    1    2 1
     2    1   27 1
     3    1   28 1
     4    1   29 1
     5    2    6 1
     6    2    3 2
     7    3    4 1
     8    3    7 1
     9    4    5 2
    10    5    6 1
    11    5   30 1
    12    7   12 ar
    13    7    8 ar
    14    8    9 ar
    15    8   31 1
    16    9   10 ar
    17    9   32 1
    18   10   11 ar
    19   10   13 1
    20   11   12 ar
    21   11   33 1
    22   12   34 1
    23   13   14 1
    24   14   15 1
    25   14   35 1
    26   14   36 1
    27   15   16 1
    28   15   37 1
    29   15   38 1
    30   16   17 1
    31   16   39 1
    32   16   47 1
    33   17   18 1
    34   17   40 1
    35   17   41 1
    36   18   19 1
    37   18   20 1
    38   18   26 1
    39   20   25 ar
    40   20   21 ar
    41   21   22 ar
    42   21   42 1
    43   22   23 ar
    44   22   43 1
    45   23   24 ar
    46   23   44 1
    47   24   25 ar
    48   25   45 1
    49   26   46 1
@<TRIPOS>MOLECULE
CHEMBL399440__1
   46    48     0     0     0
SMALL
USER_CHARGES

@<TRIPOS>ATOM
      1 C1         -0.0184    1.5028    0.0103 C.3       1 <0>        -0.0729
      2 C2          0.0021   -0.0041    0.0020 C.2       1 <0>        -0.0322
      3 C3         -1.0759   -0.8254    0.0024 C.2       1 <0>         0.0268
      4 N1         -0.6147   -2.0961   -0.0071 N.2       1 <0>        -0.4778
      5 C4          0.6862   -2.0667   -0.0131 C.2       1 <0>         0.1725
      6 O1          1.0953   -0.7910   -0.0131 O.3       1 <0>        -0.2014
      7 C5         -2.4997   -0.4071    0.0120 C.ar      1 <0>        -0.0502
      8 C6         -2.8867    0.7367    0.7079 C.ar      1 <0>        -0.0689
      9 C7         -4.2108    1.1232    0.7146 C.ar      1 <0>        -0.1491
     10 C8         -5.1574    0.3743    0.0291 C.ar      1 <0>         0.1406
     11 C9         -4.7749   -0.7654   -0.6648 C.ar      1 <0>        -0.2069
     12 C10        -3.4516   -1.1540   -0.6796 C.ar      1 <0>        -0.0476
     13 O2         -6.4613    0.7574    0.0379 O.3       1 <0>        -0.3150
     14 C11        -7.3823   -0.0591   -0.6881 C.3       1 <0>         0.0580
     15 C12        -8.7905    0.5258   -0.5634 C.3       1 <0>         0.0616
     16 N2         -8.8350    1.8394   -1.2194 N.3       1 <0>        -0.6843
     17 C13       -10.1752    2.4327   -1.1193 C.3       1 <0>         0.0316
     18 C14       -10.1821    3.7968   -1.8123 C.3       1 <0>         0.1564
     19 H1         -9.9174    3.6722   -2.8623 H         1 <0>         0.1193
     20 C15       -11.5569    4.4054   -1.7096 C.ar      1 <0>        -0.1715
     21 C16       -12.4741    4.2453   -2.7373 C.ar      1 <0>        -0.0634
     22 C17       -13.7268    4.8228   -2.5995 C.ar      1 <0>        -0.1687
     23 C18       -14.0180    5.5339   -1.4505 C.ar      1 <0>         0.0995
     24 N3        -13.1206    5.6660   -0.4935 N.ar      1 <0>        -0.4807
     25 C19       -11.9214    5.1252   -0.5878 C.ar      1 <0>         0.1071
     26 O3         -9.2320    4.6569   -1.1803 O.3       1 <0>        -0.5480
     27 H2          1.0042    1.8801    0.0026 H         1 <0>         0.0813
     28 H3         -0.5455    1.8639   -0.8728 H         1 <0>         0.0924
     29 H4         -0.5286    1.8543    0.9071 H         1 <0>         0.0911
     30 H5          1.3325   -2.9320   -0.0211 H         1 <0>         0.2517
     31 H6         -2.1507    1.3196    1.2416 H         1 <0>         0.1334
     32 H7         -4.5113    2.0093    1.2540 H         1 <0>         0.1354
     33 H8         -5.5137   -1.3461   -1.1972 H         1 <0>         0.1314
     34 H9         -3.1539   -2.0383   -1.2234 H         1 <0>         0.1296
     35 H10        -7.0925   -0.0878   -1.7385 H         1 <0>         0.0754
     36 H11        -7.3712   -1.0699   -0.2804 H         1 <0>         0.0698
     37 H12        -9.5056   -0.1435   -1.0416 H         1 <0>         0.0935
     38 H13        -9.0457    0.6371    0.4905 H         1 <0>         0.0429
     39 H14        -8.1361    2.4585   -0.8369 H         1 <0>         0.3577
     40 H15       -10.8999    1.7766   -1.6014 H         1 <0>         0.0840
     41 H16       -10.4399    2.5572   -0.0693 H         1 <0>         0.0367
     42 H17       -12.2184    3.6844   -3.6241 H         1 <0>         0.1379
     43 H18       -14.4658    4.7187   -3.3802 H         1 <0>         0.1389
     44 H19       -14.9916    5.9869   -1.3354 H         1 <0>         0.1584
     45 H20       -11.2145    5.2503    0.2190 H         1 <0>         0.1509
     46 H21        -9.4057    4.8127   -0.2418 H         1 <0>         0.3729
@<TRIPOS>BOND
     1    1    2 1
     2    1   27 1
     3    1   28 1
     4    1   29 1
     5    2    6 1
     6    2    3 2
     7    3    4 1
     8    3    7 1
     9    4    5 2
    10    5    6 1
    11    5   30 1
    12    7   12 ar
    13    7    8 ar
    14    8    9 ar
    15    8   31 1
    16    9   10 ar
    17    9   32 1
    18   10   11 ar
    19   10   13 1
    20   11   12 ar
    21   11   33 1
    22   12   34 1
    23   13   14 1
    24   14   15 1
    25   14   35 1
    26   14   36 1
    27   15   16 1
    28   15   37 1
    29   15   38 1
    30   16   17 1
    31   16   39 1
    32   17   18 1
    33   17   40 1
    34   17   41 1
    35   18   19 1
    36   18   20 1
    37   18   26 1
    38   20   25 ar
    39   20   21 ar
    40   21   22 ar
    41   21   42 1
    42   22   23 ar
    43   22   43 1
    44   23   24 ar
    45   23   44 1
    46   24   25 ar
    47   25   45 1
    48   26   46 1
@<TRIPOS>MOLECULE
CHEMBL124863
   66    69     0     0     0
SMALL
USER_CHARGES

@<TRIPOS>ATOM
      1 C1          0.8123   -5.8532    7.5423 C.ar      1 <0>        -0.1512
      2 C2          2.1237   -5.6475    7.1554 C.ar      1 <0>        -0.0833
      3 C3          2.4019   -4.9429    6.0003 C.ar      1 <0>        -0.1941
      4 C4          1.3638   -4.4419    5.2277 C.ar      1 <0>         0.1200
      5 C5          0.0487   -4.6502    5.6180 C.ar      1 <0>        -0.1439
      6 C6         -0.2240   -5.3551    6.7743 C.ar      1 <0>        -0.0816
      7 O1          1.6348   -3.7480    4.0912 O.3       1 <0>        -0.2591
      8 C7          2.9369   -3.5086    3.7850 C.ar      1 <0>         0.1086
      9 C8          3.4917   -2.2609    4.0395 C.ar      1 <0>        -0.1350
     10 C9          4.8159   -2.0115    3.7306 C.ar      1 <0>        -0.0775
     11 C10         5.5955   -3.0008    3.1667 C.ar      1 <0>        -0.1728
     12 C11         5.0467   -4.2583    2.9071 C.ar      1 <0>         0.1320
     13 C12         3.7114   -4.5102    3.2248 C.ar      1 <0>        -0.1361
     14 N1          5.8174   -5.2424    2.3471 N.2       1 <0>        -0.5694
     15 C13         6.4117   -5.0349    1.1960 C.2       1 <0>         0.6494
     16 N2          6.1542   -3.8832    0.4857 N.pl3     1 <0>        -0.6184
     17 C14         6.7652   -3.6707   -0.7049 C.1       1 <0>         0.3872
     18 N3          7.2774   -3.4924   -1.7030 N.1       1 <0>        -0.3735
     19 N4          7.2907   -5.9663    0.6990 N.pl3     1 <0>        -0.6533
     20 C15         7.5028   -7.1647    1.3877 C.ar      1 <0>         0.1837
     21 C16         6.4490   -7.7845    2.0469 C.ar      1 <0>        -0.1020
     22 C17         6.6619   -8.9680    2.7261 C.ar      1 <0>        -0.0876
     23 C18         7.9225   -9.5360    2.7503 C.ar      1 <0>        -0.1242
     24 C19         8.9738   -8.9215    2.0950 C.ar      1 <0>        -0.0865
     25 C20         8.7665   -7.7409    1.4092 C.ar      1 <0>        -0.1399
     26 C21         8.1512  -10.8273    3.4929 C.3       1 <0>        -0.0978
     27 C22         7.9167  -12.0075    2.5479 C.3       1 <0>        -0.0077
     28 N5          8.1397  -13.2662    3.2718 N.4       1 <0>        -0.5056
     29 C23         7.9145  -14.3993    2.3644 C.3       1 <0>        -0.0425
     30 C24         8.1467  -15.7103    3.1183 C.3       1 <0>         0.1415
     31 H1          7.4546  -15.7740    3.9580 H         1 <0>         0.1339
     32 C25         7.9157  -16.8727    2.1875 C.ar      1 <0>        -0.2004
     33 C26         6.6799  -17.5000    2.1409 C.ar      1 <0>        -0.0548
     34 C27         6.5131  -18.5653    1.2695 C.ar      1 <0>        -0.1641
     35 C28         7.5767  -18.9640    0.4818 C.ar      1 <0>         0.1224
     36 N6          8.7383  -18.3441    0.5530 N.ar      1 <0>        -0.4750
     37 C29         8.9311  -17.3234    1.3657 C.ar      1 <0>         0.1172
     38 O2          9.4900  -15.7488    3.6043 O.3       1 <0>        -0.5460
     39 H2          0.5969   -6.4079    8.4436 H         1 <0>         0.1259
     40 H3          2.9313   -6.0376    7.7571 H         1 <0>         0.1250
     41 H4          3.4264   -4.7818    5.6989 H         1 <0>         0.1284
     42 H5         -0.7611   -4.2610    5.0187 H         1 <0>         0.1335
     43 H6         -1.2474   -5.5172    7.0787 H         1 <0>         0.1329
     44 H7          2.8863   -1.4826    4.4801 H         1 <0>         0.1360
     45 H8          5.2415   -1.0394    3.9309 H         1 <0>         0.1368
     46 H9          6.6295   -2.8024    2.9259 H         1 <0>         0.1280
     47 H10         3.2824   -5.4821    3.0305 H         1 <0>         0.1340
     48 H11         5.5355   -3.2244    0.8379 H         1 <0>         0.4480
     49 H12         7.7643   -5.7926   -0.1295 H         1 <0>         0.4221
     50 H13         5.4644   -7.3413    2.0287 H         1 <0>         0.1470
     51 H14         5.8431   -9.4503    3.2392 H         1 <0>         0.1278
     52 H15         9.9571   -9.3677    2.1158 H         1 <0>         0.1289
     53 H16         9.5869   -7.2639    0.8935 H         1 <0>         0.1315
     54 H17         9.1758  -10.8567    3.8636 H         1 <0>         0.0960
     55 H18         7.4591  -10.8910    4.3325 H         1 <0>         0.0962
     56 H19         6.8921  -11.9781    2.1772 H         1 <0>         0.1337
     57 H20         8.6089  -11.9437    1.7083 H         1 <0>         0.1333
     58 H21         9.0881  -13.2934    3.6149 H         1 <0>         0.4325
     59 H22         6.8899  -14.3699    1.9937 H         1 <0>         0.1446
     60 H23         8.6066  -14.3356    1.5248 H         1 <0>         0.1375
     61 H24         5.8667  -17.1668    2.7686 H         1 <0>         0.1412
     62 H25         5.5643  -19.0774    1.2072 H         1 <0>         0.1472
     63 H26         7.4550  -19.7930   -0.1995 H         1 <0>         0.1671
     64 H27         9.8950  -16.8372    1.3926 H         1 <0>         0.1530
     65 H28        10.1611  -15.6962    2.9101 H         1 <0>         0.3899
     66 H29         7.4990  -13.3252    4.0490 H         1 <0>         0.4297
@<TRIPOS>BOND
     1    1    6 ar
     2    1    2 ar
     3    1   39 1
     4    2    3 ar
     5    2   40 1
     6    3    4 ar
     7    3   41 1
     8    4    5 ar
     9    4    7 1
    10    5    6 ar
    11    5   42 1
    12    6   43 1
    13    7    8 1
    14    8   13 ar
    15    8    9 ar
    16    9   10 ar
    17    9   44 1
    18   10   11 ar
    19   10   45 1
    20   11   12 ar
    21   11   46 1
    22   12   13 ar
    23   12   14 1
    24   13   47 1
    25   14   15 2
    26   15   16 1
    27   15   19 1
    28   16   17 1
    29   16   48 1
    30   17   18 3
    31   19   20 1
    32   19   49 1
    33   20   25 ar
    34   20   21 ar
    35   21   22 ar
    36   21   50 1
    37   22   23 ar
    38   22   51 1
    39   23   24 ar
    40   23   26 1
    41   24   25 ar
    42   24   52 1
    43   25   53 1
    44   26   27 1
    45   26   54 1
    46   26   55 1
    47   27   28 1
    48   27   56 1
    49   27   57 1
    50   28   29 1
    51   28   58 1
    52   28   66 1
    53   29   30 1
    54   29   59 1
    55   29   60 1
    56   30   31 1
    57   30   32 1
    58   30   38 1
    59   32   37 ar
    60   32   33 ar
    61   33   34 ar
    62   33   61 1
    63   34   35 ar
    64   34   62 1
    65   35   36 ar
    66   35   63 1
    67   36   37 ar
    68   37   64 1
    69   38   65 1
@<TRIPOS>MOLECULE
CHEMBL29141
   28    29     0     0     0
SMALL
USER_CHARGES

@<TRIPOS>ATOM
      1 C1         -0.0178    1.4648    0.0101 C.3       1 <0>        -0.0465
      2 N1          0.0021   -0.0041    0.0020 N.4       1 <0>        -0.5066
      3 C2          0.6897   -0.4778   -1.2066 C.3       1 <0>        -0.0467
      4 C3          0.7104   -2.0077   -1.2150 C.3       1 <0>         0.1616
      5 C4          1.5209   -2.4926   -2.3893 C.ar      1 <0>        -0.2348
      6 C5          0.8939   -2.8193   -3.5793 C.ar      1 <0>        -0.0380
      7 C6          1.6579   -3.2626   -4.6447 C.ar      1 <0>        -0.2396
      8 C7          3.0277   -3.3838   -4.5399 C.ar      1 <0>         0.3003
      9 C8          3.6908   -3.0581   -3.3404 C.ar      1 <0>        -0.0292
     10 C9          2.8868   -2.6071   -2.2851 C.ar      1 <0>        -0.0482
     11 S1          4.0590   -2.2974   -0.9867 S.3       1 <0>        -0.1213
     12 C10         5.5369   -2.7592   -1.8756 C.2       1 <0>         0.5384
     13 N2          5.0507   -3.1258   -3.0778 N.am      1 <0>        -0.6195
     14 O1          6.6913   -2.7550   -1.4894 O.2       1 <0>        -0.4753
     15 O2          3.7467   -3.8235   -5.6069 O.3       1 <0>        -0.6858
     16 O3         -0.6262   -2.5016   -1.3223 O.3       1 <0>        -0.5547
     17 H1          1.0047    1.8421    0.0024 H         1 <0>         0.1221
     18 H2         -0.5450    1.8259   -0.8730 H         1 <0>         0.1209
     19 H3         -0.5280    1.8163    0.9069 H         1 <0>         0.1223
     20 H4          0.4901   -0.3383    0.8195 H         1 <0>         0.4287
     21 H5          0.1625   -0.1167   -2.0897 H         1 <0>         0.1353
     22 H6          1.7123   -0.1005   -1.2143 H         1 <0>         0.1405
     23 H7          1.1585   -2.3700   -0.2898 H         1 <0>         0.1148
     24 H8         -0.1782   -2.7297   -3.6750 H         1 <0>         0.1132
     25 H9          1.1727   -3.5185   -5.5750 H         1 <0>         0.1177
     26 H10        -1.0871   -2.2181   -2.1237 H         1 <0>         0.3842
     27 H11         5.6593   -3.4271   -3.7704 H         1 <0>         0.4158
     28 H12        -0.9445   -0.3533    0.0092 H         1 <0>         0.4303
@<TRIPOS>BOND
     1    1    2 1
     2    1   17 1
     3    1   18 1
     4    1   19 1
     5    2    3 1
     6    2   20 1
     7    2   28 1
     8    3    4 1
     9    3   21 1
    10    3   22 1
    11    4    5 1
    12    4   16 1
    13    4   23 1
    14    5   10 ar
    15    5    6 ar
    16    6    7 ar
    17    6   24 1
    18    7    8 ar
    19    7   25 1
    20    8    9 ar
    21    8   15 1
    22    9   13 1
    23    9   10 ar
    24   10   11 1
    25   11   12 1
    26   12   13 am
    27   12   14 2
    28   13   27 1
    29   16   26 1
@<TRIPOS>MOLECULE
CHEMBL29141__1
   28    29     0     0     0
SMALL
USER_CHARGES

@<TRIPOS>ATOM
      1 C1         -0.0178    1.4648    0.0101 C.3       1 <0>        -0.0465
      2 N1          0.0021   -0.0041    0.0020 N.4       1 <0>        -0.5060
      3 C2          0.6897   -0.4778   -1.2066 C.3       1 <0>        -0.0468
      4 C3          0.7104   -2.0077   -1.2150 C.3       1 <0>         0.1614
      5 C4          1.4158   -2.4937   -2.4549 C.ar      1 <0>        -0.2353
      6 C5          2.7623   -2.8111   -2.4093 C.ar      1 <0>        -0.0380
      7 C6          3.3898   -3.2555   -3.5600 C.ar      1 <0>        -0.2399
      8 C7          2.6982   -3.3860   -4.7459 C.ar      1 <0>         0.3003
      9 C8          1.3273   -3.0697   -4.8198 C.ar      1 <0>        -0.0293
     10 C9          0.7235   -2.6290   -3.6347 C.ar      1 <0>        -0.0477
     11 S1         -0.9624   -2.3484   -4.1193 S.3       1 <0>        -0.1200
     12 C10        -0.8071   -2.8235   -5.8332 C.2       1 <0>         0.5381
     13 N2          0.4978   -3.1466   -5.9284 N.am      1 <0>        -0.6197
     14 O1         -1.6616   -2.8403   -6.7000 O.2       1 <0>        -0.4753
     15 O2          3.3472   -3.8247   -5.8573 O.3       1 <0>        -0.6858
     16 O3          1.4016   -2.4810   -0.0573 O.3       1 <0>        -0.5553
     17 H1          1.0047    1.8421    0.0024 H         1 <0>         0.1210
     18 H2         -0.5450    1.8259   -0.8730 H         1 <0>         0.1220
     19 H3         -0.5280    1.8163    0.9069 H         1 <0>         0.1223
     20 H4          0.4901   -0.3383    0.8195 H         1 <0>         0.4302
     21 H5          0.1625   -0.1167   -2.0897 H         1 <0>         0.1403
     22 H6          1.7123   -0.1005   -1.2143 H         1 <0>         0.1356
     23 H7         -0.3122   -2.3849   -1.2073 H         1 <0>         0.1156
     24 H8          3.3164   -2.7129   -1.4874 H         1 <0>         0.1131
     25 H9          4.4403   -3.5043   -3.5288 H         1 <0>         0.1176
     26 H10         2.3198   -2.1835    0.0016 H         1 <0>         0.3838
     27 H11         0.8572   -3.4487   -6.7772 H         1 <0>         0.4157
     28 H12        -0.9445   -0.3533    0.0092 H         1 <0>         0.4286
@<TRIPOS>BOND
     1    1    2 1
     2    1   17 1
     3    1   18 1
     4    1   19 1
     5    2    3 1
     6    2   20 1
     7    2   28 1
     8    3    4 1
     9    3   21 1
    10    3   22 1
    11    4    5 1
    12    4   16 1
    13    4   23 1
    14    5   10 ar
    15    5    6 ar
    16    6    7 ar
    17    6   24 1
    18    7    8 ar
    19    7   25 1
    20    8    9 ar
    21    8   15 1
    22    9   13 1
    23    9   10 ar
    24   10   11 1
    25   11   12 1
    26   12   13 am
    27   12   14 2
    28   13   27 1
    29   16   26 1
@<TRIPOS>MOLECULE
CHEMBL552434
   64    67     0     0     0
SMALL
USER_CHARGES

@<TRIPOS>ATOM
      1 C1         -1.7536    0.7991   -4.6050 C.ar      1 <0>        -0.1083
      2 C2         -2.9617    1.0684   -3.9866 C.ar      1 <0>        -0.1093
      3 C3         -3.6653    0.0645   -3.3565 C.ar      1 <0>        -0.0754
      4 C4         -3.1592   -1.2398   -3.3383 C.ar      1 <0>         0.0535
      5 C5         -1.9380   -1.4935   -3.9676 C.ar      1 <0>        -0.1388
      6 C6         -1.2431   -0.4888   -4.5930 C.ar      1 <0>        -0.0897
      7 C7         -1.6888   -2.9707   -3.7642 C.3       1 <0>        -0.0711
      8 C8         -2.9024   -3.4201   -2.9757 C.2       1 <0>         0.1491
      9 N1         -3.6516   -2.3926   -2.7924 N.2       1 <0>        -0.4671
     10 C9         -0.4074   -3.1968   -2.9594 C.3       1 <0>        -0.1133
     11 C10        -0.1194   -4.6737   -2.8778 C.2       1 <0>         0.5200
     12 O1         -0.8657   -5.4675   -3.4109 O.2       1 <0>        -0.5128
     13 N2          0.9673   -5.1127   -2.2124 N.am      1 <0>        -0.6774
     14 C11         1.1831   -6.4860   -2.0536 C.ar      1 <0>         0.1644
     15 C12         1.7562   -6.9699   -0.8849 C.ar      1 <0>        -0.1417
     16 C13         1.9679   -8.3260   -0.7313 C.ar      1 <0>        -0.0875
     17 C14         1.6099   -9.2017   -1.7398 C.ar      1 <0>        -0.1265
     18 C15         1.0394   -8.7231   -2.9050 C.ar      1 <0>        -0.0881
     19 C16         0.8194   -7.3687   -3.0622 C.ar      1 <0>        -0.1177
     20 C17         1.8423  -10.6809   -1.5688 C.3       1 <0>        -0.0977
     21 C18         0.6100  -11.3198   -0.9253 C.3       1 <0>        -0.0075
     22 N3          0.8365  -12.7616   -0.7587 N.4       1 <0>        -0.5037
     23 C19        -0.3467  -13.3750   -0.1409 C.3       1 <0>        -0.0419
     24 C20        -0.1107  -14.8767    0.0327 C.3       1 <0>         0.0858
     25 H1          0.7573  -15.0366    0.6723 H         1 <0>         0.1362
     26 C21        -1.3430  -15.5156    0.6762 C.3       1 <0>         0.0287
     27 O2         -1.0794  -16.8941    0.9449 O.3       1 <0>        -0.3012
     28 C22        -2.0796  -17.6131    1.5209 C.ar      1 <0>         0.1087
     29 C23        -3.2906  -17.0042    1.8152 C.ar      1 <0>        -0.1913
     30 C24        -4.3066  -17.7345    2.4003 C.ar      1 <0>        -0.1061
     31 C25        -4.1160  -19.0768    2.6931 C.ar      1 <0>         0.0804
     32 C26        -2.9054  -19.6859    2.3980 C.ar      1 <0>        -0.1027
     33 C27        -1.8908  -18.9566    1.8089 C.ar      1 <0>        -0.1260
     34 O3         -5.1159  -19.7955    3.2700 O.3       1 <0>        -0.4957
     35 O4          0.1228  -15.4730   -1.2448 O.3       1 <0>        -0.5435
     36 H2         -1.2113    1.5910   -5.1002 H         1 <0>         0.1334
     37 H3         -3.3566    2.0736   -3.9975 H         1 <0>         0.1345
     38 H4         -4.6073    0.2848   -2.8764 H         1 <0>         0.1310
     39 H5         -0.3001   -0.7016   -5.0746 H         1 <0>         0.1258
     40 H6         -1.6392   -3.4881   -4.7223 H         1 <0>         0.1283
     41 H7         -3.1016   -4.4236   -2.6298 H         1 <0>         0.1920
     42 H8          0.4240   -2.6911   -3.4504 H         1 <0>         0.1107
     43 H9         -0.5343   -2.7953   -1.9540 H         1 <0>         0.1060
     44 H10         1.5999   -4.4765   -1.8435 H         1 <0>         0.4173
     45 H11         2.0364   -6.2863   -0.0970 H         1 <0>         0.1326
     46 H12         2.4139   -8.7028    0.1773 H         1 <0>         0.1288
     47 H13         0.7611   -9.4096   -3.6909 H         1 <0>         0.1280
     48 H14         0.3691   -6.9960   -3.9703 H         1 <0>         0.1461
     49 H15         2.0204  -11.1357   -2.5432 H         1 <0>         0.0964
     50 H16         2.7103  -10.8407   -0.9291 H         1 <0>         0.0963
     51 H17         0.4319  -10.8649    0.0491 H         1 <0>         0.1344
     52 H18        -0.2580  -11.1599   -1.5650 H         1 <0>         0.1342
     53 H19         1.0014  -13.1826   -1.6607 H         1 <0>         0.4335
     54 H20        -0.5247  -12.9202    0.8336 H         1 <0>         0.1472
     55 H21        -1.2146  -13.2152   -0.7805 H         1 <0>         0.1400
     56 H22        -1.5737  -15.0012    1.6091 H         1 <0>         0.0821
     57 H23        -2.1914  -15.4337   -0.0033 H         1 <0>         0.0769
     58 H24        -3.4390  -15.9590    1.5872 H         1 <0>         0.1285
     59 H25        -5.2493  -17.2602    2.6301 H         1 <0>         0.1353
     60 H26        -2.7569  -20.7309    2.6263 H         1 <0>         0.1417
     61 H27        -0.9495  -19.4318    1.5757 H         1 <0>         0.1387
     62 H28        -5.7101  -20.2212    2.6368 H         1 <0>         0.3940
     63 H29        -0.6101  -15.3694   -1.8671 H         1 <0>         0.3902
     64 H30         1.6400  -12.9096   -0.1666 H         1 <0>         0.4309
@<TRIPOS>BOND
     1    1    6 ar
     2    1    2 ar
     3    1   36 1
     4    2    3 ar
     5    2   37 1
     6    3    4 ar
     7    3   38 1
     8    4    9 1
     9    4    5 ar
    10    5    6 ar
    11    5    7 1
    12    6   39 1
    13    7    8 1
    14    7   10 1
    15    7   40 1
    16    8    9 2
    17    8   41 1
    18   10   11 1
    19   10   42 1
    20   10   43 1
    21   11   12 2
    22   11   13 am
    23   13   14 1
    24   13   44 1
    25   14   19 ar
    26   14   15 ar
    27   15   16 ar
    28   15   45 1
    29   16   17 ar
    30   16   46 1
    31   17   18 ar
    32   17   20 1
    33   18   19 ar
    34   18   47 1
    35   19   48 1
    36   20   21 1
    37   20   49 1
    38   20   50 1
    39   21   22 1
    40   21   51 1
    41   21   52 1
    42   22   23 1
    43   22   53 1
    44   22   64 1
    45   23   24 1
    46   23   54 1
    47   23   55 1
    48   24   25 1
    49   24   26 1
    50   24   35 1
    51   26   27 1
    52   26   56 1
    53   26   57 1
    54   27   28 1
    55   28   33 ar
    56   28   29 ar
    57   29   30 ar
    58   29   58 1
    59   30   31 ar
    60   30   59 1
    61   31   32 ar
    62   31   34 1
    63   32   33 ar
    64   32   60 1
    65   33   61 1
    66   34   62 1
    67   35   63 1
@<TRIPOS>MOLECULE
CHEMBL552434__1
   64    67     0     0     0
SMALL
USER_CHARGES

@<TRIPOS>ATOM
      1 C1          0.7998    1.2313    4.8795 C.ar      1 <0>        -0.1088
      2 C2         -0.3686    1.4186    5.5965 C.ar      1 <0>        -0.1092
      3 C3         -1.1019    0.3374    6.0360 C.ar      1 <0>        -0.0751
      4 C4         -0.6666   -0.9629    5.7582 C.ar      1 <0>         0.0541
      5 C5          0.5153   -1.1335    5.0331 C.ar      1 <0>        -0.1393
      6 C6          1.2401   -0.0521    4.5988 C.ar      1 <0>        -0.0900
      7 C7          0.6915   -2.6301    4.9122 C.3       1 <0>        -0.0708
      8 C8         -0.5150   -3.1801    5.6460 C.2       1 <0>         0.1490
      9 N1         -1.2004   -2.1814    6.0744 N.2       1 <0>        -0.4665
     10 C9          0.6727   -3.0594    3.4438 C.3       1 <0>        -0.1134
     11 C10         0.9722   -4.5332    3.3475 C.2       1 <0>         0.5201
     12 O1          1.1802   -5.1768    4.3542 O.2       1 <0>        -0.5127
     13 N2          1.0089   -5.1361    2.1426 N.am      1 <0>        -0.6775
     14 C11         1.3816   -6.4812    2.0444 C.ar      1 <0>         0.1644
     15 C12         2.1120   -6.9227    0.9489 C.ar      1 <0>        -0.1420
     16 C13         2.4782   -8.2510    0.8549 C.ar      1 <0>        -0.0877
     17 C14         2.1184   -9.1411    1.8501 C.ar      1 <0>        -0.1267
     18 C15         1.3907   -8.7047    2.9421 C.ar      1 <0>        -0.0880
     19 C16         1.0267   -7.3764    3.0450 C.ar      1 <0>        -0.1176
     20 C17         2.5197  -10.5898    1.7443 C.3       1 <0>        -0.0977
     21 C18         3.8823  -10.7915    2.4102 C.3       1 <0>        -0.0074
     22 N3          4.2735  -12.2037    2.3071 N.4       1 <0>        -0.5037
     23 C19         5.5819  -12.3973    2.9464 C.3       1 <0>        -0.0418
     24 C20         5.9893  -13.8682    2.8390 C.3       1 <0>         0.0858
     25 H1          6.0527  -14.1518    1.7884 H         1 <0>         0.1362
     26 C21         7.3520  -14.0698    3.5048 C.3       1 <0>         0.0288
     27 O2          7.7859  -15.4164    3.3034 O.3       1 <0>        -0.3011
     28 C22         8.9879  -15.7638    3.8360 C.ar      1 <0>         0.1087
     29 C23         9.7298  -14.8287    4.5423 C.ar      1 <0>        -0.1913
     30 C24        10.9508  -15.1817    5.0833 C.ar      1 <0>        -0.1062
     31 C25        11.4346  -16.4713    4.9208 C.ar      1 <0>         0.0805
     32 C26        10.6922  -17.4067    4.2153 C.ar      1 <0>        -0.1027
     33 C27         9.4693  -17.0549    3.6779 C.ar      1 <0>        -0.1260
     34 O3         12.6369  -16.8185    5.4526 O.3       1 <0>        -0.4957
     35 O4          5.0140  -14.6817    3.4940 O.3       1 <0>        -0.5434
     36 H2          1.3656    2.0844    4.5353 H         1 <0>         0.1331
     37 H3         -0.7087    2.4204    5.8139 H         1 <0>         0.1345
     38 H4         -2.0124    0.4940    6.5953 H         1 <0>         0.1314
     39 H5          2.1520   -0.2011    4.0396 H         1 <0>         0.1251
     40 H6          1.6147   -2.9493    5.3959 H         1 <0>         0.1277
     41 H7         -0.7553   -4.2239    5.7841 H         1 <0>         0.1927
     42 H8         -0.3114   -2.8602    3.0196 H         1 <0>         0.1063
     43 H9          1.4267   -2.4985    2.8916 H         1 <0>         0.1103
     44 H10         0.7770   -4.6375    1.3435 H         1 <0>         0.4174
     45 H11         2.3930   -6.2281    0.1711 H         1 <0>         0.1325
     46 H12         3.0459   -8.5951    0.0030 H         1 <0>         0.1286
     47 H13         1.1109   -9.4024    3.7175 H         1 <0>         0.1283
     48 H14         0.4628   -7.0352    3.9006 H         1 <0>         0.1466
     49 H15         1.7757  -11.2103    2.2440 H         1 <0>         0.0966
     50 H16         2.5831  -10.8735    0.6938 H         1 <0>         0.0963
     51 H17         4.6263  -10.1710    1.9106 H         1 <0>         0.1342
     52 H18         3.8189  -10.5078    3.4607 H         1 <0>         0.1341
     53 H19         3.5849  -12.7781    2.7696 H         1 <0>         0.4336
     54 H20         6.3258  -11.7768    2.4467 H         1 <0>         0.1471
     55 H21         5.5185  -12.1137    3.9969 H         1 <0>         0.1399
     56 H22         8.0765  -13.3849    3.0644 H         1 <0>         0.0820
     57 H23         7.2672  -13.8714    4.5732 H         1 <0>         0.0769
     58 H24         9.3531  -13.8245    4.6688 H         1 <0>         0.1284
     59 H25        11.5288  -14.4533    5.6326 H         1 <0>         0.1352
     60 H26        11.0691  -18.4108    4.0884 H         1 <0>         0.1418
     61 H27         8.8895  -17.7843    3.1318 H         1 <0>         0.1388
     62 H28        12.5832  -17.1638    6.3543 H         1 <0>         0.3941
     63 H29         4.9042  -14.4839    4.4342 H         1 <0>         0.3903
     64 H30         4.3322  -12.4663    1.3346 H         1 <0>         0.4309
@<TRIPOS>BOND
     1    1    6 ar
     2    1    2 ar
     3    1   36 1
     4    2    3 ar
     5    2   37 1
     6    3    4 ar
     7    3   38 1
     8    4    9 1
     9    4    5 ar
    10    5    6 ar
    11    5    7 1
    12    6   39 1
    13    7    8 1
    14    7   10 1
    15    7   40 1
    16    8    9 2
    17    8   41 1
    18   10   11 1
    19   10   42 1
    20   10   43 1
    21   11   12 2
    22   11   13 am
    23   13   14 1
    24   13   44 1
    25   14   19 ar
    26   14   15 ar
    27   15   16 ar
    28   15   45 1
    29   16   17 ar
    30   16   46 1
    31   17   18 ar
    32   17   20 1
    33   18   19 ar
    34   18   47 1
    35   19   48 1
    36   20   21 1
    37   20   49 1
    38   20   50 1
    39   21   22 1
    40   21   51 1
    41   21   52 1
    42   22   23 1
    43   22   53 1
    44   22   64 1
    45   23   24 1
    46   23   54 1
    47   23   55 1
    48   24   25 1
    49   24   26 1
    50   24   35 1
    51   26   27 1
    52   26   56 1
    53   26   57 1
    54   27   28 1
    55   28   33 ar
    56   28   29 ar
    57   29   30 ar
    58   29   58 1
    59   30   31 ar
    60   30   59 1
    61   31   32 ar
    62   31   34 1
    63   32   33 ar
    64   32   60 1
    65   33   61 1
    66   34   62 1
    67   35   63 1
@<TRIPOS>MOLECULE
CHEMBL257106
   50    52     0     0     0
SMALL
USER_CHARGES

@<TRIPOS>ATOM
      1 C1         -0.0167    1.3777    0.0096 C.ar      1 <0>        -0.0977
      2 C2          1.1710    2.0855    0.0021 C.ar      1 <0>        -0.0978
      3 C3          2.3777    1.4116   -0.0130 C.ar      1 <0>        -0.1296
      4 C4          2.3977    0.0294   -0.0210 C.ar      1 <0>        -0.0996
      5 C5          1.2098   -0.6793   -0.0135 C.ar      1 <0>        -0.0305
      6 C6          0.0021   -0.0041    0.0020 C.ar      1 <0>        -0.0922
      7 Cl1         1.2341   -2.4151   -0.0242 Cl        1 <0>        -0.0495
      8 C7          3.6718    2.1839   -0.0212 C.3       1 <0>         0.1364
      9 H1          3.5107    3.1675    0.4199 H         1 <0>         0.1355
     10 C8          4.1605    2.3449   -1.4621 C.3       1 <0>        -0.0436
     11 N1          5.4219    3.0977   -1.4701 N.4       1 <0>        -0.5051
     12 C9          5.8911    3.2523   -2.8536 C.3       1 <0>        -0.0090
     13 C10         7.2049    4.0363   -2.8619 C.3       1 <0>        -0.0943
     14 C11         7.6862    4.1950   -4.2811 C.ar      1 <0>        -0.1143
     15 C12         8.5152    3.2374   -4.8386 C.ar      1 <0>        -0.1019
     16 C13         8.9595    3.3765   -6.1374 C.ar      1 <0>        -0.0976
     17 C14         8.5714    4.4847   -6.8894 C.ar      1 <0>         0.0121
     18 C15         7.7351    5.4469   -6.3227 C.ar      1 <0>        -0.0328
     19 C16         7.2931    5.2938   -5.0227 C.ar      1 <0>        -0.0986
     20 Cl2         7.2463    6.8302   -7.2508 Cl        1 <0>        -0.0434
     21 C17         9.0458    4.6400   -8.2851 C.ar      1 <0>        -0.0996
     22 C18        10.4035    4.5059   -8.5787 C.ar      1 <0>        -0.1104
     23 C19        10.8455    4.6493   -9.8739 C.ar      1 <0>        -0.0887
     24 C20         9.9332    4.9296  -10.8964 C.ar      1 <0>        -0.1086
     25 C21         8.5728    5.0636  -10.6003 C.ar      1 <0>        -0.0882
     26 C22         8.1335    4.9144   -9.3049 C.ar      1 <0>        -0.1034
     27 C23        10.4048    5.0840  -12.2840 C.2       1 <0>         0.5142
     28 O1         11.5948    4.9670  -12.5421 O.co2     1 <0>        -0.6812
     29 O2          9.6064    5.3291  -13.1777 O.co2     1 <0>        -0.6813
     30 O3          4.6537    1.4761    0.7385 O.3       1 <0>        -0.5468
     31 H2         -0.9592    1.9048    0.0259 H         1 <0>         0.1425
     32 H3          1.1559    3.1654    0.0076 H         1 <0>         0.1354
     33 H4          3.3407   -0.4970   -0.0336 H         1 <0>         0.1335
     34 H5         -0.9257   -0.5568    0.0079 H         1 <0>         0.1426
     35 H6          4.3215    1.3613   -1.9032 H         1 <0>         0.1377
     36 H7          3.4115    2.8848   -2.0416 H         1 <0>         0.1462
     37 H8          5.2728    4.0082   -1.0618 H         1 <0>         0.4292
     38 H9          6.0522    2.2687   -3.2947 H         1 <0>         0.1348
     39 H10         5.1422    3.7921   -3.4330 H         1 <0>         0.1351
     40 H11         7.0438    5.0200   -2.4208 H         1 <0>         0.0963
     41 H12         7.9539    3.4965   -2.2824 H         1 <0>         0.0975
     42 H13         8.8154    2.3794   -4.2555 H         1 <0>         0.1292
     43 H14         9.6070    2.6286   -6.5706 H         1 <0>         0.1400
     44 H15         6.6423    6.0356   -4.5837 H         1 <0>         0.1328
     45 H16        11.1077    4.2898   -7.7889 H         1 <0>         0.1157
     46 H17        11.8963    4.5459  -10.1007 H         1 <0>         0.1321
     47 H18         7.8670    5.2801  -11.3886 H         1 <0>         0.1312
     48 H19         7.0825    5.0134   -9.0766 H         1 <0>         0.1148
     49 H20         4.8478    0.5905    0.4023 H         1 <0>         0.3892
     50 H21         6.1152    2.5980   -0.9337 H         1 <0>         0.4317
@<TRIPOS>BOND
     1    1    6 ar
     2    1    2 ar
     3    1   31 1
     4    2    3 ar
     5    2   32 1
     6    3    4 ar
     7    3    8 1
     8    4    5 ar
     9    4   33 1
    10    5    6 ar
    11    5    7 1
    12    6   34 1
    13    8    9 1
    14    8   10 1
    15    8   30 1
    16   10   11 1
    17   10   35 1
    18   10   36 1
    19   11   12 1
    20   11   37 1
    21   11   50 1
    22   12   13 1
    23   12   38 1
    24   12   39 1
    25   13   14 1
    26   13   40 1
    27   13   41 1
    28   14   19 ar
    29   14   15 ar
    30   15   16 ar
    31   15   42 1
    32   16   17 ar
    33   16   43 1
    34   17   18 ar
    35   17   21 1
    36   18   19 ar
    37   18   20 1
    38   19   44 1
    39   21   26 ar
    40   21   22 ar
    41   22   23 ar
    42   22   45 1
    43   23   24 ar
    44   23   46 1
    45   24   25 ar
    46   24   27 1
    47   25   26 ar
    48   25   47 1
    49   26   48 1
    50   27   28 2
    51   27   29 1
    52   30   49 1
@<TRIPOS>MOLECULE
CHEMBL1204003
   57    59     0     0     0
SMALL
USER_CHARGES

@<TRIPOS>ATOM
      1 C1          4.5839   -0.9403   -4.0732 C.ar      1 <0>        -0.1245
      2 C2          3.4212   -0.2991   -3.6869 C.ar      1 <0>        -0.1039
      3 C3          3.0973   -0.2003   -2.3481 C.ar      1 <0>        -0.1295
      4 C4          3.9410   -0.7461   -1.3889 C.ar      1 <0>         0.1373
      5 C5          5.1082   -1.3895   -1.7804 C.ar      1 <0>        -0.1517
      6 C6          5.4261   -1.4846   -3.1209 C.ar      1 <0>        -0.0953
      7 N1          3.6167   -0.6477   -0.0339 N.pl3     1 <0>        -1.0549
      8 S1          3.7405   -1.9770    0.9458 S.o2      1 <0>         2.6857
      9 O1          5.0498   -2.4973    0.7608 O.2       1 <0>        -0.9392
     10 O2          3.2482   -1.5889    2.2211 O.2       1 <0>        -0.9416
     11 C7          2.6241   -3.1893    0.3225 C.ar      1 <0>        -0.6618
     12 C8          1.2930   -3.1593    0.6944 C.ar      1 <0>        -0.0111
     13 C9          0.4172   -4.1104    0.2054 C.ar      1 <0>        -0.1301
     14 C10         0.8723   -5.0913   -0.6558 C.ar      1 <0>        -0.0503
     15 C11         2.2031   -5.1208   -1.0283 C.ar      1 <0>        -0.1289
     16 C12         3.0781   -4.1672   -0.5427 C.ar      1 <0>        -0.0081
     17 C13        -0.0824   -6.1288   -1.1880 C.3       1 <0>        -0.1106
     18 C14        -0.7024   -5.6289   -2.4944 C.3       1 <0>        -0.0063
     19 N2         -1.6329   -6.6402   -3.0133 N.4       1 <0>        -0.5041
     20 C15        -2.2282   -6.1602   -4.2676 C.3       1 <0>        -0.0416
     21 C16        -3.1974   -7.2136   -4.8080 C.3       1 <0>         0.0858
     22 H1         -2.6784   -8.1666   -4.9100 H         1 <0>         0.1354
     23 C17        -3.7225   -6.7699   -6.1749 C.3       1 <0>         0.0298
     24 O3         -4.5355   -7.8048   -6.7316 O.3       1 <0>        -0.3028
     25 C18        -5.0837   -7.5692   -7.9526 C.ar      1 <0>         0.1160
     26 C19        -4.8394   -6.3690   -8.6041 C.ar      1 <0>        -0.2095
     27 C20        -5.3974   -6.1321   -9.8454 C.ar      1 <0>        -0.0800
     28 C21        -6.1993   -7.0898  -10.4383 C.ar      1 <0>        -0.1470
     29 C22        -6.4447   -8.2866   -9.7909 C.ar      1 <0>        -0.0763
     30 C23        -5.8840   -8.5308   -8.5522 C.ar      1 <0>        -0.1443
     31 O4         -4.2927   -7.3622   -3.9023 O.3       1 <0>        -0.5426
     32 H2          4.8326   -1.0200   -5.1211 H         1 <0>         0.1275
     33 H3          2.7659    0.1253   -4.4331 H         1 <0>         0.1279
     34 H4          2.1892    0.3009   -2.0471 H         1 <0>         0.1277
     35 H5          5.7665   -1.8146   -1.0372 H         1 <0>         0.1562
     36 H6          6.3334   -1.9847   -3.4260 H         1 <0>         0.1327
     37 H7          3.3189    0.1994    0.3332 H         1 <0>         0.4304
     38 H8          0.9375   -2.3929    1.3672 H         1 <0>         0.1463
     39 H9         -0.6226   -4.0874    0.4965 H         1 <0>         0.1370
     40 H10         2.5588   -5.8874   -1.7008 H         1 <0>         0.1372
     41 H11         4.1171   -4.1880   -0.8367 H         1 <0>         0.1489
     42 H12         0.4570   -7.0576   -1.3739 H         1 <0>         0.1038
     43 H13        -0.8706   -6.3066   -0.4565 H         1 <0>         0.1037
     44 H14        -1.2418   -4.7001   -2.3086 H         1 <0>         0.1360
     45 H15         0.0859   -5.4511   -3.2260 H         1 <0>         0.1368
     46 H16        -1.1336   -7.5000   -3.1853 H         1 <0>         0.4319
     47 H17        -2.7676   -5.2315   -4.0817 H         1 <0>         0.1409
     48 H18        -1.4399   -5.9825   -4.9991 H         1 <0>         0.1473
     49 H19        -4.3168   -5.8636   -6.0591 H         1 <0>         0.0766
     50 H20        -2.8820   -6.5708   -6.8398 H         1 <0>         0.0811
     51 H21        -4.2137   -5.6203   -8.1410 H         1 <0>         0.1231
     52 H22        -5.2075   -5.1979  -10.3529 H         1 <0>         0.1287
     53 H23        -6.6349   -6.9025  -11.4087 H         1 <0>         0.1299
     54 H24        -7.0717   -9.0329  -10.2560 H         1 <0>         0.1355
     55 H25        -6.0724   -9.4676   -8.0489 H         1 <0>         0.1333
     56 H26        -4.8010   -6.5514   -3.7633 H         1 <0>         0.3907
     57 H27        -2.3626   -6.8048   -2.3361 H         1 <0>         0.4349
@<TRIPOS>BOND
     1    1    6 ar
     2    1    2 ar
     3    1   32 1
     4    2    3 ar
     5    2   33 1
     6    3    4 ar
     7    3   34 1
     8    4    5 ar
     9    4    7 1
    10    5    6 ar
    11    5   35 1
    12    6   36 1
    13    7    8 1
    14    7   37 1
    15    8    9 2
    16    8   10 2
    17    8   11 1
    18   11   16 ar
    19   11   12 ar
    20   12   13 ar
    21   12   38 1
    22   13   14 ar
    23   13   39 1
    24   14   15 ar
    25   14   17 1
    26   15   16 ar
    27   15   40 1
    28   16   41 1
    29   17   18 1
    30   17   42 1
    31   17   43 1
    32   18   19 1
    33   18   44 1
    34   18   45 1
    35   19   20 1
    36   19   46 1
    37   19   57 1
    38   20   21 1
    39   20   47 1
    40   20   48 1
    41   21   22 1
    42   21   23 1
    43   21   31 1
    44   23   24 1
    45   23   49 1
    46   23   50 1
    47   24   25 1
    48   25   30 ar
    49   25   26 ar
    50   26   27 ar
    51   26   51 1
    52   27   28 ar
    53   27   52 1
    54   28   29 ar
    55   28   53 1
    56   29   30 ar
    57   29   54 1
    58   30   55 1
    59   31   56 1
@<TRIPOS>MOLECULE
CHEMBL1204004
   54    56     0     0     0
SMALL
USER_CHARGES

@<TRIPOS>ATOM
      1 C1          0.3953    1.3632    1.6642 C.ar      1 <0>        -0.1479
      2 C2          0.7681    0.1231    2.1494 C.ar      1 <0>        -0.0853
      3 C3          1.8369   -0.5472    1.5877 C.ar      1 <0>        -0.1682
      4 C4          2.5379    0.0258    0.5340 C.ar      1 <0>         0.1716
      5 C5          2.1608    1.2719    0.0490 C.ar      1 <0>        -0.1643
      6 C6          1.0910    1.9366    0.6154 C.ar      1 <0>        -0.0823
      7 N1          3.6200   -0.6492   -0.0363 N.pl3     1 <0>        -0.6855
      8 C7          3.6964   -2.0419    0.0457 C.ar      1 <0>         0.2037
      9 C8          2.5350   -2.8043    0.0416 C.ar      1 <0>        -0.1609
     10 C9          2.6141   -4.1806    0.1228 C.ar      1 <0>        -0.0731
     11 C10         3.8476   -4.8000    0.2086 C.ar      1 <0>        -0.1489
     12 C11         5.0057   -4.0441    0.2130 C.ar      1 <0>        -0.0714
     13 C12         4.9341   -2.6678    0.1258 C.ar      1 <0>        -0.1650
     14 C13         3.9299   -6.3021    0.2981 C.3       1 <0>        -0.0942
     15 C14         4.0165   -6.8929   -1.1105 C.3       1 <0>        -0.0074
     16 N2          4.0967   -8.3571   -1.0233 N.4       1 <0>        -0.5039
     17 C15         4.1798   -8.9244   -2.3758 C.3       1 <0>        -0.0415
     18 C16         4.2634  -10.4494   -2.2849 C.3       1 <0>         0.0856
     19 H1          3.3744  -10.8328   -1.7841 H         1 <0>         0.1359
     20 C17         4.3499  -11.0403   -3.6936 C.3       1 <0>         0.0297
     21 O1          4.3107  -12.4666   -3.6151 O.3       1 <0>        -0.3028
     22 C18         4.3781  -13.1511   -4.7872 C.ar      1 <0>         0.1165
     23 C19         4.4858  -12.4642   -5.9877 C.ar      1 <0>        -0.2095
     24 C20         4.5547  -13.1623   -7.1778 C.ar      1 <0>        -0.0801
     25 C21         4.5160  -14.5445   -7.1731 C.ar      1 <0>        -0.1474
     26 C22         4.4082  -15.2313   -5.9780 C.ar      1 <0>        -0.0765
     27 C23         4.3452  -14.5380   -4.7848 C.ar      1 <0>        -0.1446
     28 O2          5.4260  -10.8193   -1.5410 O.3       1 <0>        -0.5435
     29 H2         -0.4437    1.8832    2.1023 H         1 <0>         0.1258
     30 H3          0.2229   -0.3217    2.9688 H         1 <0>         0.1263
     31 H4          2.1277   -1.5155    1.9674 H         1 <0>         0.1237
     32 H5          2.7036    1.7202   -0.7700 H         1 <0>         0.1249
     33 H6          0.7970    2.9051    0.2387 H         1 <0>         0.1285
     34 H7          4.3183   -0.1510   -0.4892 H         1 <0>         0.4133
     35 H8          1.5714   -2.3211   -0.0247 H         1 <0>         0.1326
     36 H9          1.7117   -4.7738    0.1196 H         1 <0>         0.1260
     37 H10         5.9673   -4.5311    0.2805 H         1 <0>         0.1263
     38 H11         5.8391   -2.0783    0.1244 H         1 <0>         0.1299
     39 H12         4.8168   -6.5842    0.8656 H         1 <0>         0.0945
     40 H13         3.0409   -6.6855    0.7990 H         1 <0>         0.0945
     41 H14         3.1296   -6.6108   -1.6780 H         1 <0>         0.1337
     42 H15         4.9054   -6.5095   -1.6113 H         1 <0>         0.1330
     43 H16         4.9176   -8.6183   -0.4980 H         1 <0>         0.4332
     44 H17         3.2930   -8.6423   -2.9432 H         1 <0>         0.1468
     45 H18         5.0688   -8.5410   -2.8766 H         1 <0>         0.1395
     46 H19         3.5083  -10.6858   -4.2886 H         1 <0>         0.0813
     47 H20         5.2832  -10.7278   -4.1619 H         1 <0>         0.0762
     48 H21         4.5154  -11.3846   -5.9919 H         1 <0>         0.1233
     49 H22         4.6386  -12.6281   -8.1126 H         1 <0>         0.1285
     50 H23         4.5696  -15.0884   -8.1046 H         1 <0>         0.1297
     51 H24         4.3778  -16.3109   -5.9770 H         1 <0>         0.1353
     52 H25         4.2655  -15.0751   -3.8512 H         1 <0>         0.1333
     53 H26         6.2561  -10.5107   -1.9293 H         1 <0>         0.3900
     54 H27         3.2738   -8.7120   -0.5597 H         1 <0>         0.4309
@<TRIPOS>BOND
     1    1    6 ar
     2    1    2 ar
     3    1   29 1
     4    2    3 ar
     5    2   30 1
     6    3    4 ar
     7    3   31 1
     8    4    5 ar
     9    4    7 1
    10    5    6 ar
    11    5   32 1
    12    6   33 1
    13    7    8 1
    14    7   34 1
    15    8   13 ar
    16    8    9 ar
    17    9   10 ar
    18    9   35 1
    19   10   11 ar
    20   10   36 1
    21   11   12 ar
    22   11   14 1
    23   12   13 ar
    24   12   37 1
    25   13   38 1
    26   14   15 1
    27   14   39 1
    28   14   40 1
    29   15   16 1
    30   15   41 1
    31   15   42 1
    32   16   17 1
    33   16   43 1
    34   16   54 1
    35   17   18 1
    36   17   44 1
    37   17   45 1
    38   18   19 1
    39   18   20 1
    40   18   28 1
    41   20   21 1
    42   20   46 1
    43   20   47 1
    44   21   22 1
    45   22   27 ar
    46   22   23 ar
    47   23   24 ar
    48   23   48 1
    49   24   25 ar
    50   24   49 1
    51   25   26 ar
    52   25   50 1
    53   26   27 ar
    54   26   51 1
    55   27   52 1
    56   28   53 1
@<TRIPOS>MOLECULE
CHEMBL467301
   70    73     0     0     0
SMALL
USER_CHARGES

@<TRIPOS>ATOM
      1 C1          8.5067   -2.2920   13.3511 C.ar      1 <0>        -0.0902
      2 C2          7.5693   -2.8801   12.5226 C.ar      1 <0>        -0.1169
      3 C3          7.9179   -3.2490   11.2368 C.ar      1 <0>        -0.0903
      4 C4          9.2038   -3.0294   10.7794 C.ar      1 <0>        -0.1485
      5 C5         10.1409   -2.4406   11.6076 C.ar      1 <0>        -0.0946
      6 C6          9.7927   -2.0730   12.8939 C.ar      1 <0>        -0.1156
      7 C7          9.5841   -3.4325    9.3780 C.3       1 <0>         0.1394
      8 N1          9.3307   -2.3167    8.4631 N.pl3     1 <0>        -0.3995
      9 C8          8.1655   -2.0672    7.7896 C.2       1 <0>         0.0520
     10 C9          8.3654   -0.9491    7.0660 C.2       1 <0>         0.0391
     11 N2          9.6185   -0.5275    7.2916 N.pl3     1 <0>        -0.4708
     12 C10        10.2011   -1.3389    8.1314 C.cat     1 <0>         0.3012
     13 C11         7.3578   -0.2877    6.1614 C.3       1 <0>        -0.0816
     14 C12         6.4799    0.6295    6.9732 C.2       1 <0>         0.5161
     15 O1          6.6551    0.7357    8.1686 O.2       1 <0>        -0.5115
     16 N3          5.4999    1.3319    6.3707 N.am      1 <0>        -0.6674
     17 C13         4.6234    2.1084    7.1366 C.ar      1 <0>         0.1513
     18 C14         3.2908    2.2258    6.7638 C.ar      1 <0>        -0.1341
     19 C15         2.4282    2.9931    7.5219 C.ar      1 <0>        -0.0864
     20 C16         2.8901    3.6440    8.6511 C.ar      1 <0>        -0.1139
     21 C17         4.2166    3.5294    9.0248 C.ar      1 <0>        -0.0895
     22 C18         5.0829    2.7587    8.2744 C.ar      1 <0>        -0.1153
     23 C19         1.9461    4.4803    9.4759 C.3       1 <0>        -0.1028
     24 C20         1.3011    3.6076   10.5545 C.3       1 <0>        -0.0060
     25 N4          0.3809    4.4228   11.3585 N.4       1 <0>        -0.5041
     26 C21        -0.2384    3.5849   12.3940 C.3       1 <0>        -0.0413
     27 C22        -1.1968    4.4340   13.2315 C.3       1 <0>         0.0850
     28 H1         -1.9725    4.8483   12.5874 H         1 <0>         0.1368
     29 C23        -1.8418    3.5612   14.3100 C.3       1 <0>         0.0302
     30 O2         -2.8219    4.3240   15.0168 O.3       1 <0>        -0.3025
     31 C24        -3.4929    3.6922   16.0155 C.ar      1 <0>         0.1149
     32 C25        -3.2096    2.3671   16.3130 C.ar      1 <0>        -0.2100
     33 C26        -3.8927    1.7272   17.3291 C.ar      1 <0>        -0.0805
     34 C27        -4.8584    2.4062   18.0490 C.ar      1 <0>        -0.1459
     35 C28        -5.1428    3.7267   17.7541 C.ar      1 <0>        -0.0754
     36 C29        -4.4582    4.3729   16.7431 C.ar      1 <0>        -0.1435
     37 O3         -0.4726    5.4990   13.8506 O.3       1 <0>        -0.5425
     38 H2          8.2331   -1.9997   14.3541 H         1 <0>         0.1325
     39 H3          6.5647   -3.0516   12.8799 H         1 <0>         0.1312
     40 H4          7.1858   -3.7090   10.5897 H         1 <0>         0.1260
     41 H5         11.1456   -2.2694   11.2504 H         1 <0>         0.1281
     42 H6         10.5249   -1.6133   13.5411 H         1 <0>         0.1340
     43 H7         10.6422   -3.6927    9.3493 H         1 <0>         0.1321
     44 H8          8.9897   -4.2940    9.0737 H         1 <0>         0.1326
     45 H9          7.2599   -2.6543    7.8303 H         1 <0>         0.2194
     46 H10        11.2126   -1.2454    8.4982 H         1 <0>         0.2616
     47 H11         7.8790    0.2899    5.3979 H         1 <0>         0.1315
     48 H12         6.7429   -1.0503    5.6835 H         1 <0>         0.1461
     49 H13         5.4023    1.2991    5.4062 H         1 <0>         0.4208
     50 H14         2.9295    1.7180    5.8818 H         1 <0>         0.1356
     51 H15         1.3918    3.0851    7.2322 H         1 <0>         0.1335
     52 H16         4.5744    4.0393    9.9071 H         1 <0>         0.1298
     53 H17         6.1175    2.6655    8.5697 H         1 <0>         0.1414
     54 H18         2.4985    5.2927    9.9482 H         1 <0>         0.0988
     55 H19         1.1704    4.8946    8.8319 H         1 <0>         0.1000
     56 H20         0.7488    2.7952   10.0822 H         1 <0>         0.1343
     57 H21         2.0768    3.1933   11.1985 H         1 <0>         0.1325
     58 H22         0.8922    5.1748   11.7957 H         1 <0>         0.4343
     59 H23        -0.7907    2.7725   11.9217 H         1 <0>         0.1472
     60 H24         0.5373    3.1706   13.0380 H         1 <0>         0.1391
     61 H25        -2.3192    2.6999   13.8428 H         1 <0>         0.0808
     62 H26        -1.0762    3.2190   15.0063 H         1 <0>         0.0755
     63 H27        -2.4559    1.8361   15.7505 H         1 <0>         0.1221
     64 H28        -3.6725    0.6957   17.5610 H         1 <0>         0.1284
     65 H29        -5.3916    1.9041   18.8427 H         1 <0>         0.1306
     66 H30        -5.8978    4.2548   18.3177 H         1 <0>         0.1364
     67 H31        -4.6777    5.4058   16.5161 H         1 <0>         0.1338
     68 H32         0.2352    5.2032   14.4393 H         1 <0>         0.3897
     69 H33        -0.3371    4.8064   10.7623 H         1 <0>         0.4324
     70 H34        10.0262    0.2587    6.8958 H         1 <0>         0.4622
@<TRIPOS>BOND
     1    1    6 ar
     2    1    2 ar
     3    1   38 1
     4    2    3 ar
     5    2   39 1
     6    3    4 ar
     7    3   40 1
     8    4    5 ar
     9    4    7 1
    10    5    6 ar
    11    5   41 1
    12    6   42 1
    13    7    8 1
    14    7   43 1
    15    7   44 1
    16    8   12 1
    17    8    9 1
    18    9   10 2
    19    9   45 1
    20   10   11 1
    21   10   13 1
    22   11   12 2
    23   11   70 1
    24   12   46 1
    25   13   14 1
    26   13   47 1
    27   13   48 1
    28   14   15 2
    29   14   16 am
    30   16   17 1
    31   16   49 1
    32   17   22 ar
    33   17   18 ar
    34   18   19 ar
    35   18   50 1
    36   19   20 ar
    37   19   51 1
    38   20   21 ar
    39   20   23 1
    40   21   22 ar
    41   21   52 1
    42   22   53 1
    43   23   24 1
    44   23   54 1
    45   23   55 1
    46   24   25 1
    47   24   56 1
    48   24   57 1
    49   25   26 1
    50   25   58 1
    51   25   69 1
    52   26   27 1
    53   26   59 1
    54   26   60 1
    55   27   28 1
    56   27   29 1
    57   27   37 1
    58   29   30 1
    59   29   61 1
    60   29   62 1
    61   30   31 1
    62   31   36 ar
    63   31   32 ar
    64   32   33 ar
    65   32   63 1
    66   33   34 ar
    67   33   64 1
    68   34   35 ar
    69   34   65 1
    70   35   36 ar
    71   35   66 1
    72   36   67 1
    73   37   68 1
@<TRIPOS>MOLECULE
CHEMBL467301__1
   69    72     0     0     0
SMALL
USER_CHARGES

@<TRIPOS>ATOM
      1 C1         12.2232   -5.0119    9.0379 C.ar      1 <0>        -0.1086
      2 C2         11.6517   -5.1723    7.7895 C.ar      1 <0>        -0.1207
      3 C3         11.6863   -4.1361    6.8752 C.ar      1 <0>        -0.0985
      4 C4         12.2920   -2.9394    7.2094 C.ar      1 <0>        -0.1189
      5 C5         12.8628   -2.7787    8.4581 C.ar      1 <0>        -0.0980
      6 C6         12.8294   -3.8154    9.3719 C.ar      1 <0>        -0.1194
      7 C7         12.3306   -1.8101    6.2123 C.3       1 <0>         0.1459
      8 N1         11.1405   -0.9718    6.3776 N.pl3     1 <0>        -0.4513
      9 C8          9.9378   -1.1351    5.7448 C.2       1 <0>        -0.0398
     10 C9          9.1292   -0.1524    6.1852 C.2       1 <0>         0.0047
     11 N2          9.8194    0.5907    7.0630 N.2       1 <0>        -0.4685
     12 C10        11.0233    0.1027    7.1870 C.2       1 <0>         0.1898
     13 C11         7.6995    0.0729    5.7655 C.3       1 <0>        -0.0497
     14 C12         6.8169    0.1076    6.9865 C.2       1 <0>         0.5184
     15 O1          7.3013   -0.0364    8.0891 O.2       1 <0>        -0.4926
     16 N3          5.4895    0.2988    6.8534 N.am      1 <0>        -0.6840
     17 C13         4.6572    0.2347    7.9764 C.ar      1 <0>         0.1711
     18 C14         3.3775   -0.2929    7.8649 C.ar      1 <0>        -0.1456
     19 C15         2.5585   -0.3547    8.9753 C.ar      1 <0>        -0.0882
     20 C16         3.0116    0.1080   10.1971 C.ar      1 <0>        -0.1312
     21 C17         4.2852    0.6342   10.3113 C.ar      1 <0>        -0.0879
     22 C18         5.1113    0.6932    9.2061 C.ar      1 <0>        -0.1187
     23 C19         2.1152    0.0390   11.4066 C.3       1 <0>        -0.0961
     24 C20         2.3262   -1.2968   12.1222 C.3       1 <0>        -0.0077
     25 N4          1.4525   -1.3641   13.3012 N.4       1 <0>        -0.5035
     26 C21         1.6550   -2.6466   13.9882 C.3       1 <0>        -0.0418
     27 C22         0.7450   -2.7167   15.2162 C.3       1 <0>         0.0859
     28 H1         -0.2955   -2.6329   14.9025 H         1 <0>         0.1359
     29 C23         0.9560   -4.0525   15.9317 C.3       1 <0>         0.0296
     30 O2          0.0249   -4.1676   17.0097 O.3       1 <0>        -0.3027
     31 C24         0.0790   -5.3042   17.7528 C.ar      1 <0>         0.1166
     32 C25         1.0128   -6.2858   17.4543 C.ar      1 <0>        -0.2095
     33 C26         1.0660   -7.4400   18.2116 C.ar      1 <0>        -0.0801
     34 C27         0.1893   -7.6175   19.2659 C.ar      1 <0>        -0.1476
     35 C28        -0.7426   -6.6409   19.5651 C.ar      1 <0>        -0.0766
     36 C29        -0.7958   -5.4822   18.8148 C.ar      1 <0>        -0.1445
     37 O3          1.0622   -1.6444   16.1059 O.3       1 <0>        -0.5435
     38 H2         12.1923   -5.8200    9.7538 H         1 <0>         0.1251
     39 H3         11.1784   -6.1074    7.5283 H         1 <0>         0.1254
     40 H4         11.2403   -4.2617    5.8996 H         1 <0>         0.1220
     41 H5         13.3363   -1.8438    8.7191 H         1 <0>         0.1241
     42 H6         13.2757   -3.6899   10.3474 H         1 <0>         0.1264
     43 H7         13.2244   -1.2088    6.3787 H         1 <0>         0.1056
     44 H8         12.3501   -2.2181    5.2017 H         1 <0>         0.1026
     45 H9          9.6858   -1.9041    5.0295 H         1 <0>         0.1719
     46 H10        11.7985    0.4949    7.8287 H         1 <0>         0.2026
     47 H11         7.6220    1.0215    5.2341 H         1 <0>         0.1098
     48 H12         7.3812   -0.7377    5.1100 H         1 <0>         0.1088
     49 H13         5.1110    0.4808    5.9790 H         1 <0>         0.4148
     50 H14         3.0229   -0.6541    6.9108 H         1 <0>         0.1317
     51 H15         1.5629   -0.7645    8.8891 H         1 <0>         0.1272
     52 H16         4.6360    0.9951   11.2669 H         1 <0>         0.1263
     53 H17         6.1078    1.0996    9.2970 H         1 <0>         0.1465
     54 H18         2.3572    0.8569   12.0852 H         1 <0>         0.0957
     55 H19         1.0747    0.1228   11.0929 H         1 <0>         0.0955
     56 H20         2.0843   -2.1147   11.4435 H         1 <0>         0.1340
     57 H21         3.3667   -1.3806   12.4358 H         1 <0>         0.1337
     58 H22         1.6764   -0.6069   13.9294 H         1 <0>         0.4335
     59 H23         1.4131   -3.4645   13.3096 H         1 <0>         0.1468
     60 H24         2.6956   -2.7304   14.3018 H         1 <0>         0.1396
     61 H25         0.8002   -4.8702   15.2281 H         1 <0>         0.0812
     62 H26         1.9723   -4.0985   16.3230 H         1 <0>         0.0763
     63 H27         1.6974   -6.1479   16.6305 H         1 <0>         0.1234
     64 H28         1.7928   -8.2044   17.9796 H         1 <0>         0.1284
     65 H29         0.2323   -8.5207   19.8565 H         1 <0>         0.1296
     66 H30        -1.4265   -6.7821   20.3889 H         1 <0>         0.1352
     67 H31        -1.5209   -4.7178   19.0517 H         1 <0>         0.1333
     68 H32         1.9746   -1.6556   16.4259 H         1 <0>         0.3902
     69 H33         0.4893   -1.2865   13.0108 H         1 <0>         0.4306
@<TRIPOS>BOND
     1    1    6 ar
     2    1    2 ar
     3    1   38 1
     4    2    3 ar
     5    2   39 1
     6    3    4 ar
     7    3   40 1
     8    4    5 ar
     9    4    7 1
    10    5    6 ar
    11    5   41 1
    12    6   42 1
    13    7    8 1
    14    7   43 1
    15    7   44 1
    16    8   12 1
    17    8    9 1
    18    9   10 2
    19    9   45 1
    20   10   11 1
    21   10   13 1
    22   11   12 2
    23   12   46 1
    24   13   14 1
    25   13   47 1
    26   13   48 1
    27   14   15 2
    28   14   16 am
    29   16   17 1
    30   16   49 1
    31   17   22 ar
    32   17   18 ar
    33   18   19 ar
    34   18   50 1
    35   19   20 ar
    36   19   51 1
    37   20   21 ar
    38   20   23 1
    39   21   22 ar
    40   21   52 1
    41   22   53 1
    42   23   24 1
    43   23   54 1
    44   23   55 1
    45   24   25 1
    46   24   56 1
    47   24   57 1
    48   25   26 1
    49   25   58 1
    50   25   69 1
    51   26   27 1
    52   26   59 1
    53   26   60 1
    54   27   28 1
    55   27   29 1
    56   27   37 1
    57   29   30 1
    58   29   61 1
    59   29   62 1
    60   30   31 1
    61   31   36 ar
    62   31   32 ar
    63   32   33 ar
    64   32   63 1
    65   33   34 ar
    66   33   64 1
    67   34   35 ar
    68   34   65 1
    69   35   36 ar
    70   35   66 1
    71   36   67 1
    72   37   68 1
@<TRIPOS>MOLECULE
CHEMBL467298
   75    79     0     0     0
SMALL
USER_CHARGES

@<TRIPOS>ATOM
      1 C1          0.8564   -2.0620    6.8525 C.ar      1 <0>        -0.1058
      2 C2          0.2139   -3.1947    7.3164 C.ar      1 <0>        -0.1147
      3 C3          0.3231   -4.3847    6.6215 C.ar      1 <0>        -0.0953
      4 C4          1.0744   -4.4420    5.4625 C.ar      1 <0>        -0.1217
      5 C5          1.7161   -3.3091    4.9982 C.ar      1 <0>        -0.1068
      6 C6          1.6081   -2.1194    5.6938 C.ar      1 <0>        -0.1170
      7 C7          1.1942   -5.7395    4.7056 C.3       1 <0>         0.1547
      8 N1          0.1149   -5.8309    3.7192 N.pl3     1 <0>        -0.4750
      9 C8         -1.1366   -6.3766    3.9239 C.ar      1 <0>         0.0594
     10 C9         -1.7663   -6.9714    5.0088 C.ar      1 <0>        -0.1136
     11 C10        -3.0617   -7.4257    4.8816 C.ar      1 <0>        -0.0956
     12 C11        -3.7386   -7.2926    3.6775 C.ar      1 <0>        -0.1274
     13 C12        -3.1347   -6.7104    2.5993 C.ar      1 <0>        -0.0606
     14 C13        -1.8226   -6.2417    2.7051 C.ar      1 <0>         0.0471
     15 N2         -0.9726   -5.6337    1.8381 N.2       1 <0>        -0.4746
     16 C14         0.1580   -5.3885    2.4335 C.2       1 <0>         0.2941
     17 C15         1.3438   -4.7157    1.7913 C.3       1 <0>        -0.0670
     18 C16         2.2302   -5.7571    1.1582 C.2       1 <0>         0.5214
     19 O1          1.9287   -6.9302    1.2222 O.2       1 <0>        -0.4981
     20 N3          3.3579   -5.3849    0.5209 N.am      1 <0>        -0.6763
     21 C17         4.2301   -6.3564    0.0174 C.ar      1 <0>         0.1652
     22 C18         5.6016   -6.1392    0.0403 C.ar      1 <0>        -0.1410
     23 C19         6.4598   -7.1000   -0.4574 C.ar      1 <0>        -0.0880
     24 C20         5.9548   -8.2773   -0.9782 C.ar      1 <0>        -0.1259
     25 C21         4.5897   -8.4964   -1.0028 C.ar      1 <0>        -0.0875
     26 C22         3.7265   -7.5422   -0.5010 C.ar      1 <0>        -0.1170
     27 C23         6.8942   -9.3235   -1.5205 C.3       1 <0>        -0.0977
     28 C24         7.2869  -10.2870   -0.3987 C.3       1 <0>        -0.0075
     29 N4          8.2026  -11.3068   -0.9273 N.4       1 <0>        -0.5036
     30 C25         8.5796  -12.2319    0.1498 C.3       1 <0>        -0.0418
     31 C26         9.5333  -13.2941   -0.4008 C.3       1 <0>         0.0858
     32 H1         10.4275  -12.8106   -0.7941 H         1 <0>         0.1359
     33 C27         9.9260  -14.2576    0.7210 C.3       1 <0>         0.0297
     34 O2         10.9054  -15.1786    0.2367 O.3       1 <0>        -0.3028
     35 C28        11.3645  -16.1091    1.1144 C.ar      1 <0>         0.1164
     36 C29        10.8779  -16.1388    2.4133 C.ar      1 <0>        -0.2095
     37 C30        11.3459  -17.0860    3.3034 C.ar      1 <0>        -0.0800
     38 C31        12.2986  -18.0036    2.9009 C.ar      1 <0>        -0.1474
     39 C32        12.7854  -17.9758    1.6070 C.ar      1 <0>        -0.0765
     40 C33        12.3162  -17.0345    0.7113 C.ar      1 <0>        -0.1445
     41 O3          8.8849  -14.0200   -1.4471 O.3       1 <0>        -0.5434
     42 H2          0.7674   -1.1312    7.3930 H         1 <0>         0.1279
     43 H3         -0.3730   -3.1500    8.2218 H         1 <0>         0.1283
     44 H4         -0.1783   -5.2698    6.9843 H         1 <0>         0.1228
     45 H5          2.3034   -3.3539    4.0929 H         1 <0>         0.1178
     46 H6          2.1098   -1.2344    5.3312 H         1 <0>         0.1277
     47 H7          2.1567   -5.7749    4.1953 H         1 <0>         0.0944
     48 H8          1.1214   -6.5747    5.4022 H         1 <0>         0.1008
     49 H9         -1.2438   -7.0781    5.9479 H         1 <0>         0.1198
     50 H10        -3.5529   -7.8886    5.7247 H         1 <0>         0.1317
     51 H11        -4.7530   -7.6533    3.5918 H         1 <0>         0.1316
     52 H12        -3.6706   -6.6126    1.6667 H         1 <0>         0.1300
     53 H13         0.9970   -4.0204    1.0269 H         1 <0>         0.1386
     54 H14         1.9070   -4.1712    2.5492 H         1 <0>         0.1179
     55 H15         3.5649   -4.4436    0.4113 H         1 <0>         0.4179
     56 H16         5.9966   -5.2197    0.4466 H         1 <0>         0.1333
     57 H17         7.5265   -6.9315   -0.4403 H         1 <0>         0.1291
     58 H18         4.1984   -9.4168   -1.4105 H         1 <0>         0.1280
     59 H19         2.6607   -7.7161   -0.5158 H         1 <0>         0.1458
     60 H20         6.3997   -9.8772   -2.3185 H         1 <0>         0.0967
     61 H21         7.7885   -8.8400   -1.9138 H         1 <0>         0.0967
     62 H22         7.7814   -9.7332    0.3994 H         1 <0>         0.1342
     63 H23         6.3926  -10.7704   -0.0053 H         1 <0>         0.1338
     64 H24         7.7448  -11.8194   -1.6660 H         1 <0>         0.4337
     65 H25         9.0741  -11.6781    0.9478 H         1 <0>         0.1469
     66 H26         7.6853  -12.7153    0.5431 H         1 <0>         0.1398
     67 H27        10.3398  -13.6930    1.5565 H         1 <0>         0.0812
     68 H28         9.0448  -14.8060    1.0539 H         1 <0>         0.0763
     69 H29        10.1343  -15.4218    2.7284 H         1 <0>         0.1233
     70 H30        10.9674  -17.1095    4.3146 H         1 <0>         0.1285
     71 H31        12.6634  -18.7431    3.5983 H         1 <0>         0.1297
     72 H32        13.5298  -18.6934    1.2951 H         1 <0>         0.1353
     73 H33        12.6935  -17.0160   -0.3004 H         1 <0>         0.1333
     74 H34         8.0795  -14.4767   -1.1682 H         1 <0>         0.3903
     75 H35         9.0304  -10.8593   -1.2914 H         1 <0>         0.4309
@<TRIPOS>BOND
     1    1    6 ar
     2    1    2 ar
     3    1   42 1
     4    2    3 ar
     5    2   43 1
     6    3    4 ar
     7    3   44 1
     8    4    5 ar
     9    4    7 1
    10    5    6 ar
    11    5   45 1
    12    6   46 1
    13    7    8 1
    14    7   47 1
    15    7   48 1
    16    8   16 1
    17    8    9 1
    18    9   14 ar
    19    9   10 ar
    20   10   11 ar
    21   10   49 1
    22   11   12 ar
    23   11   50 1
    24   12   13 ar
    25   12   51 1
    26   13   14 ar
    27   13   52 1
    28   14   15 1
    29   15   16 2
    30   16   17 1
    31   17   18 1
    32   17   53 1
    33   17   54 1
    34   18   19 2
    35   18   20 am
    36   20   21 1
    37   20   55 1
    38   21   26 ar
    39   21   22 ar
    40   22   23 ar
    41   22   56 1
    42   23   24 ar
    43   23   57 1
    44   24   25 ar
    45   24   27 1
    46   25   26 ar
    47   25   58 1
    48   26   59 1
    49   27   28 1
    50   27   60 1
    51   27   61 1
    52   28   29 1
    53   28   62 1
    54   28   63 1
    55   29   30 1
    56   29   64 1
    57   29   75 1
    58   30   31 1
    59   30   65 1
    60   30   66 1
    61   31   32 1
    62   31   33 1
    63   31   41 1
    64   33   34 1
    65   33   67 1
    66   33   68 1
    67   34   35 1
    68   35   40 ar
    69   35   36 ar
    70   36   37 ar
    71   36   69 1
    72   37   38 ar
    73   37   70 1
    74   38   39 ar
    75   38   71 1
    76   39   40 ar
    77   39   72 1
    78   40   73 1
    79   41   74 1
@<TRIPOS>MOLECULE
CHEMBL467298__1
   76    80     0     0     0
SMALL
USER_CHARGES

@<TRIPOS>ATOM
      1 C1          0.8931   -6.6878    6.6984 C.ar      1 <0>        -0.0897
      2 C2          1.8137   -7.7188    6.6769 C.ar      1 <0>        -0.1123
      3 C3          2.8275   -7.7207    5.7372 C.ar      1 <0>        -0.0873
      4 C4          2.9205   -6.6919    4.8187 C.ar      1 <0>        -0.1434
      5 C5          1.9993   -5.6613    4.8395 C.ar      1 <0>        -0.0864
      6 C6          0.9864   -5.6587    5.7802 C.ar      1 <0>        -0.1100
      7 C7          4.0263   -6.6934    3.7948 C.3       1 <0>         0.1393
      8 N1          3.5771   -7.3987    2.5919 N.pl3     1 <0>        -0.4088
      9 C8          3.7056   -8.7499    2.3397 C.ar      1 <0>         0.0861
     10 C9          4.2431   -9.8183    3.0447 C.ar      1 <0>        -0.0892
     11 C10         4.2128  -11.0827    2.4964 C.ar      1 <0>        -0.0616
     12 C11         3.6496  -11.2936    1.2457 C.ar      1 <0>        -0.0760
     13 C12         3.1164  -10.2544    0.5374 C.ar      1 <0>        -0.0765
     14 C13         3.1350   -8.9641    1.0737 C.ar      1 <0>         0.0510
     15 N2          2.6972   -7.7584    0.6282 N.pl3     1 <0>        -0.4775
     16 C14         2.9507   -6.8446    1.5190 C.cat     1 <0>         0.3978
     17 C15         2.6043   -5.3845    1.3807 C.3       1 <0>        -0.1098
     18 C16         1.1840   -5.1603    1.8321 C.2       1 <0>         0.5143
     19 O1          0.5186   -6.0943    2.2271 O.2       1 <0>        -0.4895
     20 N3          0.6532   -3.9220    1.7967 N.am      1 <0>        -0.6625
     21 C17        -0.6970   -3.7303    2.1101 C.ar      1 <0>         0.1535
     22 C18        -1.1070   -2.5597    2.7346 C.ar      1 <0>        -0.1331
     23 C19        -2.4404   -2.3736    3.0426 C.ar      1 <0>        -0.0845
     24 C20        -3.3668   -3.3514    2.7298 C.ar      1 <0>        -0.1115
     25 C21        -2.9617   -4.5184    2.1083 C.ar      1 <0>        -0.0866
     26 C22        -1.6307   -4.7079    1.7921 C.ar      1 <0>        -0.1140
     27 C23        -4.8209   -3.1450    3.0673 C.3       1 <0>        -0.1036
     28 C24        -5.5251   -2.4620    1.8931 C.3       1 <0>        -0.0061
     29 N4         -6.9426   -2.2608    2.2222 N.4       1 <0>        -0.5043
     30 C25        -7.6186   -1.6051    1.0948 C.3       1 <0>        -0.0414
     31 C26        -9.0950   -1.3956    1.4375 C.3       1 <0>         0.0851
     32 H1         -9.1764   -0.7679    2.3249 H         1 <0>         0.1366
     33 C27        -9.7991   -0.7126    0.2633 C.3       1 <0>         0.0300
     34 O2        -11.1480   -0.4118    0.6266 O.3       1 <0>        -0.3028
     35 C28       -11.9174    0.2013   -0.3111 C.ar      1 <0>         0.1147
     36 C29       -11.3867    0.5018   -1.5571 C.ar      1 <0>        -0.2098
     37 C30       -12.1709    1.1246   -2.5087 C.ar      1 <0>        -0.0803
     38 C31       -13.4837    1.4488   -2.2199 C.ar      1 <0>        -0.1457
     39 C32       -14.0148    1.1507   -0.9786 C.ar      1 <0>        -0.0755
     40 C33       -13.2365    0.5224   -0.0257 C.ar      1 <0>        -0.1436
     41 O3         -9.7094   -2.6606    1.6908 O.3       1 <0>        -0.5429
     42 H2          0.0984   -6.6886    7.4297 H         1 <0>         0.1317
     43 H3          1.7411   -8.5226    7.3946 H         1 <0>         0.1346
     44 H4          3.5472   -8.5258    5.7209 H         1 <0>         0.1269
     45 H5          2.0722   -4.8573    4.1221 H         1 <0>         0.1088
     46 H6          0.2669   -4.8534    5.7967 H         1 <0>         0.1251
     47 H7          4.2854   -5.6662    3.5383 H         1 <0>         0.1227
     48 H8          4.9013   -7.1970    4.2059 H         1 <0>         0.1329
     49 H9          4.6832   -9.6595    4.0181 H         1 <0>         0.1505
     50 H10         4.6306  -11.9148    3.0436 H         1 <0>         0.1590
     51 H11         3.6330  -12.2894    0.8280 H         1 <0>         0.1587
     52 H12         2.6812  -10.4296   -0.4354 H         1 <0>         0.1531
     53 H13         3.2794   -4.7909    1.9972 H         1 <0>         0.1550
     54 H14         2.7058   -5.0842    0.3379 H         1 <0>         0.1614
     55 H15         1.2072   -3.1636    1.5541 H         1 <0>         0.4216
     56 H16        -0.3839   -1.7958    2.9795 H         1 <0>         0.1362
     57 H17        -2.7598   -1.4636    3.5286 H         1 <0>         0.1343
     58 H18        -3.6876   -5.2803    1.8656 H         1 <0>         0.1308
     59 H19        -1.3156   -5.6173    1.3021 H         1 <0>         0.1366
     60 H20        -5.2896   -4.1099    3.2605 H         1 <0>         0.0988
     61 H21        -4.9024   -2.5173    3.9547 H         1 <0>         0.0999
     62 H22        -5.0564   -1.4971    1.6999 H         1 <0>         0.1349
     63 H23        -5.4436   -3.0897    1.0058 H         1 <0>         0.1333
     64 H24        -7.3764   -3.1541    2.4010 H         1 <0>         0.4342
     65 H25        -7.1500   -0.6402    0.9016 H         1 <0>         0.1476
     66 H26        -7.5372   -2.2328    0.2074 H         1 <0>         0.1398
     67 H27        -9.2759    0.2102    0.0128 H         1 <0>         0.0810
     68 H28        -9.7951   -1.3784   -0.5997 H         1 <0>         0.0758
     69 H29       -10.3611    0.2494   -1.7829 H         1 <0>         0.1223
     70 H30       -11.7583    1.3587   -3.4789 H         1 <0>         0.1287
     71 H31       -14.0951    1.9359   -2.9650 H         1 <0>         0.1307
     72 H32       -15.0404    1.4053   -0.7553 H         1 <0>         0.1363
     73 H33       -13.6532    0.2858    0.9421 H         1 <0>         0.1336
     74 H34        -9.6742   -3.2719    0.9424 H         1 <0>         0.3900
     75 H35        -7.0180   -1.6798    3.0436 H         1 <0>         0.4322
     76 H36         2.2588   -7.6028   -0.2230 H         1 <0>         0.4588
@<TRIPOS>BOND
     1    1    6 ar
     2    1    2 ar
     3    1   42 1
     4    2    3 ar
     5    2   43 1
     6    3    4 ar
     7    3   44 1
     8    4    5 ar
     9    4    7 1
    10    5    6 ar
    11    5   45 1
    12    6   46 1
    13    7    8 1
    14    7   47 1
    15    7   48 1
    16    8   16 1
    17    8    9 1
    18    9   14 ar
    19    9   10 ar
    20   10   11 ar
    21   10   49 1
    22   11   12 ar
    23   11   50 1
    24   12   13 ar
    25   12   51 1
    26   13   14 ar
    27   13   52 1
    28   14   15 1
    29   15   16 2
    30   15   76 1
    31   16   17 1
    32   17   18 1
    33   17   53 1
    34   17   54 1
    35   18   19 2
    36   18   20 am
    37   20   21 1
    38   20   55 1
    39   21   26 ar
    40   21   22 ar
    41   22   23 ar
    42   22   56 1
    43   23   24 ar
    44   23   57 1
    45   24   25 ar
    46   24   27 1
    47   25   26 ar
    48   25   58 1
    49   26   59 1
    50   27   28 1
    51   27   60 1
    52   27   61 1
    53   28   29 1
    54   28   62 1
    55   28   63 1
    56   29   30 1
    57   29   64 1
    58   29   75 1
    59   30   31 1
    60   30   65 1
    61   30   66 1
    62   31   32 1
    63   31   33 1
    64   31   41 1
    65   33   34 1
    66   33   67 1
    67   33   68 1
    68   34   35 1
    69   35   40 ar
    70   35   36 ar
    71   36   37 ar
    72   36   69 1
    73   37   38 ar
    74   37   70 1
    75   38   39 ar
    76   38   71 1
    77   39   40 ar
    78   39   72 1
    79   40   73 1
    80   41   74 1
@<TRIPOS>MOLECULE
CHEMBL248547
   71    75     0     0     0
SMALL
USER_CHARGES

@<TRIPOS>ATOM
      1 C1          0.2942    1.2582    0.2970 C.3       1 <0>        -0.1821
      2 C2          0.0665   -0.2460    0.1342 C.3       1 <0>         0.0599
      3 C3          0.6219   -0.9810    1.3557 C.3       1 <0>        -0.1816
      4 C4         -1.4328   -0.5243    0.0095 C.3       1 <0>        -0.0906
      5 C5         -2.1383   -0.0409    1.2503 C.ar      1 <0>        -0.0988
      6 C6         -2.2992   -0.8915    2.3284 C.ar      1 <0>        -0.0946
      7 C7         -2.9460   -0.4510    3.4668 C.ar      1 <0>        -0.1111
      8 C8         -3.4338    0.8465    3.5280 C.ar      1 <0>         0.1136
      9 C9         -3.2705    1.6982    2.4449 C.ar      1 <0>        -0.1096
     10 C10        -2.6185    1.2544    1.3109 C.ar      1 <0>        -0.0948
     11 O1         -4.0708    1.2821    4.6466 O.3       1 <0>        -0.2436
     12 C11        -3.3154    1.6018    5.7250 C.ar      1 <0>         0.3365
     13 C12        -3.9383    1.9476    6.9207 C.ar      1 <0>        -0.1823
     14 C13        -3.1640    2.2720    8.0153 C.ar      1 <0>         0.0210
     15 C14        -1.7683    2.2399    7.8772 C.ar      1 <0>        -0.2198
     16 C15        -1.2182    1.8831    6.6455 C.ar      1 <0>         0.1753
     17 N1         -1.9949    1.5754    5.6279 N.ar      1 <0>        -0.5341
     18 C16        -0.8947    2.5788    9.0178 C.2       1 <0>         0.5702
     19 O2         -1.3836    2.8889   10.0869 O.2       1 <0>        -0.5292
     20 N2          0.4450    2.5447    8.8740 N.am      1 <0>        -0.8496
     21 N3          0.7543   -0.7172   -1.0753 N.4       1 <0>        -0.4973
     22 C17         2.1938   -0.4500   -0.9557 C.3       1 <0>        -0.0509
     23 C18         2.9101   -0.9408   -2.2154 C.3       1 <0>         0.0877
     24 H1          2.5144   -0.4172   -3.0857 H         1 <0>         0.1354
     25 C19         4.4094   -0.6625   -2.0908 C.3       1 <0>         0.0285
     26 O3          5.0622   -1.0136   -3.3125 O.3       1 <0>        -0.2965
     27 C20         6.4070   -0.8264   -3.3694 C.ar      1 <0>         0.1739
     28 C21         7.0863   -0.3199   -2.2684 C.ar      1 <0>        -0.2303
     29 C22         8.4537   -0.1325   -2.3328 C.ar      1 <0>        -0.0423
     30 C23         9.1483   -0.4453   -3.4835 C.ar      1 <0>        -0.1663
     31 C24         8.4771   -0.9538   -4.5935 C.ar      1 <0>         0.1925
     32 C25         7.1019   -1.1446   -4.5199 C.ar      1 <0>        -0.1341
     33 C26         6.6882   -1.7020   -5.8557 C.3       1 <0>        -0.1442
     34 C27         5.3668   -1.3233   -6.5123 C.3       1 <0>        -0.1188
     35 C28         5.5857   -2.7450   -5.9870 C.3       1 <0>        -0.1180
     36 C29         7.9687   -1.7968   -6.6463 C.2       1 <0>         0.5601
     37 O4          8.0883   -2.1986   -7.7844 O.2       1 <0>        -0.4857
     38 N4          8.9518   -1.3387   -5.8489 N.am      1 <0>        -0.6578
     39 O5          2.6974   -2.3457   -2.3675 O.3       1 <0>        -0.5424
     40 H2          1.3624    1.4565    0.3858 H         1 <0>         0.0818
     41 H3         -0.1014    1.7819   -0.5733 H         1 <0>         0.0840
     42 H4         -0.2161    1.6079    1.1945 H         1 <0>         0.1119
     43 H5          0.1116   -0.6314    2.2532 H         1 <0>         0.1122
     44 H6          0.4597   -2.0526    1.2397 H         1 <0>         0.0834
     45 H7          1.6900   -0.7827    1.4445 H         1 <0>         0.0812
     46 H8         -1.8284   -0.0006   -0.8607 H         1 <0>         0.0994
     47 H9         -1.5950   -1.5959   -0.1065 H         1 <0>         0.0993
     48 H10        -1.9193   -1.9014    2.2803 H         1 <0>         0.1317
     49 H11        -3.0721   -1.1161    4.3084 H         1 <0>         0.1326
     50 H12        -3.6497    2.7085    2.4899 H         1 <0>         0.1366
     51 H13        -2.4876    1.9182    0.4691 H         1 <0>         0.1331
     52 H14        -5.0160    1.9621    6.9906 H         1 <0>         0.1567
     53 H15        -3.6209    2.5444    8.9552 H         1 <0>         0.1619
     54 H16        -0.1451    1.8547    6.5270 H         1 <0>         0.1641
     55 H17         0.8351    2.2973    8.0210 H         1 <0>         0.3985
     56 H18         1.0190    2.7674    9.6235 H         1 <0>         0.4111
     57 H19         0.6041   -1.7092   -1.1827 H         1 <0>         0.4319
     58 H20         2.3560    0.6216   -0.8397 H         1 <0>         0.1488
     59 H21         2.5894   -0.9737   -0.0854 H         1 <0>         0.1421
     60 H22         4.5665    0.3965   -1.8862 H         1 <0>         0.0834
     61 H23         4.8224   -1.2554   -1.2747 H         1 <0>         0.0787
     62 H24         6.5474   -0.0733   -1.3656 H         1 <0>         0.1320
     63 H25         8.9822    0.2615   -1.4773 H         1 <0>         0.1389
     64 H26        10.2170   -0.2948   -3.5239 H         1 <0>         0.1349
     65 H27         4.6923   -0.6772   -5.9505 H         1 <0>         0.1092
     66 H28         5.3641   -1.1805   -7.5929 H         1 <0>         0.1101
     67 H29         5.7270   -3.5373   -6.7222 H         1 <0>         0.1099
     68 H30         5.0552   -3.0339   -5.0797 H         1 <0>         0.1126
     69 H31         9.8840   -1.2910   -6.1126 H         1 <0>         0.4211
     70 H32         3.0255   -2.8755   -1.6280 H         1 <0>         0.3896
     71 H33         0.3880   -0.2325   -1.8809 H         1 <0>         0.4291
@<TRIPOS>BOND
     1    1    2 1
     2    1   40 1
     3    1   41 1
     4    1   42 1
     5    2    3 1
     6    2    4 1
     7    2   21 1
     8    3   43 1
     9    3   44 1
    10    3   45 1
    11    4    5 1
    12    4   46 1
    13    4   47 1
    14    5   10 ar
    15    5    6 ar
    16    6    7 ar
    17    6   48 1
    18    7    8 ar
    19    7   49 1
    20    8    9 ar
    21    8   11 1
    22    9   10 ar
    23    9   50 1
    24   10   51 1
    25   11   12 1
    26   12   17 ar
    27   12   13 ar
    28   13   14 ar
    29   13   52 1
    30   14   15 ar
    31   14   53 1
    32   15   16 ar
    33   15   18 1
    34   16   17 ar
    35   16   54 1
    36   18   19 2
    37   18   20 am
    38   20   55 1
    39   20   56 1
    40   21   22 1
    41   21   57 1
    42   21   71 1
    43   22   23 1
    44   22   58 1
    45   22   59 1
    46   23   24 1
    47   23   25 1
    48   23   39 1
    49   25   26 1
    50   25   60 1
    51   25   61 1
    52   26   27 1
    53   27   32 ar
    54   27   28 ar
    55   28   29 ar
    56   28   62 1
    57   29   30 ar
    58   29   63 1
    59   30   31 ar
    60   30   64 1
    61   31   38 1
    62   31   32 ar
    63   32   33 1
    64   33   35 1
    65   33   34 1
    66   33   36 1
    67   34   35 1
    68   34   65 1
    69   34   66 1
    70   35   67 1
    71   35   68 1
    72   36   37 2
    73   36   38 am
    74   38   69 1
    75   39   70 1
@<TRIPOS>MOLECULE
CHEMBL74085
   76    79     0     0     0
SMALL
USER_CHARGES

@<TRIPOS>ATOM
      1 C1         13.3649  -21.0279  -14.0484 C.3       1 <0>        -0.1555
      2 C2         12.1144  -20.7941  -13.1984 C.3       1 <0>        -0.1265
      3 C3         12.0046  -19.3082  -12.8506 C.3       1 <0>        -0.1199
      4 C4         10.7541  -19.0745  -12.0006 C.3       1 <0>        -0.1177
      5 C5         10.6443  -17.5886  -11.6528 C.3       1 <0>        -0.1321
      6 C6          9.3938  -17.3548  -10.8028 C.3       1 <0>         0.1345
      7 N1          9.2887  -15.9321  -10.4697 N.am      1 <0>        -0.7370
      8 C7          8.2580  -15.4892   -9.7226 C.2       1 <0>         0.7023
      9 O1          7.4155  -16.2705   -9.3251 O.2       1 <0>        -0.5664
     10 N2          8.1613  -14.1803   -9.4162 N.am      1 <0>        -0.6906
     11 C8          7.0417  -13.7045   -8.7245 C.ar      1 <0>         0.2291
     12 C9          6.5290  -12.4464   -9.0122 C.ar      1 <0>        -0.1732
     13 C10         5.4236  -11.9799   -8.3282 C.ar      1 <0>         0.0011
     14 C11         4.8275  -12.7640   -7.3576 C.ar      1 <0>        -0.6963
     15 C12         5.3360  -14.0170   -7.0684 C.ar      1 <0>         0.0062
     16 C13         6.4377  -14.4916   -7.7530 C.ar      1 <0>        -0.1395
     17 S1          3.4175  -12.1651   -6.4871 S.o2      1 <0>         2.6880
     18 O2          3.4445  -12.7730   -5.2030 O.2       1 <0>        -0.9377
     19 O3          3.4007  -10.7551   -6.6624 O.2       1 <0>        -0.9448
     20 N3          2.0774  -12.7542   -7.2615 N.pl3     1 <0>        -1.0600
     21 C14         1.8144  -12.3833   -8.5821 C.ar      1 <0>         0.1690
     22 C15         1.9314  -11.0540   -8.9683 C.ar      1 <0>        -0.1440
     23 C16         1.6711  -10.6907  -10.2750 C.ar      1 <0>        -0.0767
     24 C17         1.2938  -11.6484  -11.1985 C.ar      1 <0>        -0.1403
     25 C18         1.1764  -12.9725  -10.8174 C.ar      1 <0>        -0.1180
     26 C19         1.4408  -13.3436   -9.5137 C.ar      1 <0>        -0.1201
     27 C20         1.0096  -11.2481  -12.6233 C.3       1 <0>        -0.0984
     28 C21         2.2985  -11.3322  -13.4434 C.3       1 <0>         0.0894
     29 C22         2.0441  -10.7893  -14.8252 C.ar      1 <0>        -0.1212
     30 C23         1.2631   -9.6497  -14.9544 C.ar      1 <0>        -0.1058
     31 C24         1.0059   -9.1158  -16.2042 C.ar      1 <0>         0.0987
     32 C25         1.5351   -9.7259  -17.3380 C.ar      1 <0>         0.1137
     33 C26         2.3128  -10.8623  -17.2044 C.ar      1 <0>        -0.1189
     34 C27         2.5660  -11.3942  -15.9491 C.ar      1 <0>        -0.0799
     35 C28         3.4116  -12.6386  -15.8505 C.3       1 <0>        -0.1060
     36 C29         3.8965  -12.8226  -14.4120 C.3       1 <0>        -0.0034
     37 N4          2.7381  -12.7287  -13.5108 N.4       1 <0>        -0.5057
     38 O4          1.2884   -9.2077  -18.5709 O.3       1 <0>        -0.4819
     39 O5          0.2394   -7.9989  -16.3248 O.3       1 <0>        -0.4808
     40 H1         13.2948  -20.4441  -14.9662 H         1 <0>         0.0533
     41 H2         14.2478  -20.7197  -13.4883 H         1 <0>         0.0545
     42 H3         13.4431  -22.0865  -14.2962 H         1 <0>         0.0558
     43 H4         11.2316  -21.1023  -13.7586 H         1 <0>         0.0610
     44 H5         12.1845  -21.3779  -12.2807 H         1 <0>         0.0625
     45 H6         12.8874  -19.0000  -12.2905 H         1 <0>         0.0632
     46 H7         11.9345  -18.7244  -13.7684 H         1 <0>         0.0615
     47 H8          9.8712  -19.3827  -12.5608 H         1 <0>         0.0657
     48 H9         10.8242  -19.6583  -11.0829 H         1 <0>         0.0680
     49 H10        11.5271  -17.2804  -11.0927 H         1 <0>         0.0718
     50 H11        10.5742  -17.0048  -12.5706 H         1 <0>         0.0691
     51 H12         8.5109  -17.6630  -11.3630 H         1 <0>         0.0694
     52 H13         9.4639  -17.9386   -9.8850 H         1 <0>         0.0723
     53 H14         9.9608  -15.3087  -10.7869 H         1 <0>         0.4003
     54 H15         8.8678  -13.5681   -9.6751 H         1 <0>         0.4129
     55 H16         6.9943  -11.8334   -9.7699 H         1 <0>         0.1356
     56 H17         5.0245  -11.0014   -8.5512 H         1 <0>         0.1446
     57 H18         4.8684  -14.6269   -6.3096 H         1 <0>         0.1447
     58 H19         6.8314  -15.4723   -7.5300 H         1 <0>         0.1539
     59 H20         1.4751  -13.3569   -6.7979 H         1 <0>         0.4333
     60 H21         2.2253  -10.3055   -8.2473 H         1 <0>         0.1667
     61 H22         1.7619   -9.6575  -10.5759 H         1 <0>         0.1378
     62 H23         0.8816  -13.7180  -11.5412 H         1 <0>         0.1269
     63 H24         1.3532  -14.3785   -9.2178 H         1 <0>         0.1382
     64 H25         0.2642  -11.9205  -13.0478 H         1 <0>         0.1023
     65 H26         0.6312  -10.2261  -12.6449 H         1 <0>         0.1241
     66 H27         3.0716  -10.7350  -12.9600 H         1 <0>         0.1503
     67 H28         0.8534   -9.1770  -14.0740 H         1 <0>         0.1478
     68 H29         2.7245  -11.3378  -18.0824 H         1 <0>         0.1462
     69 H30         2.8187  -13.5040  -16.1466 H         1 <0>         0.1076
     70 H31         4.2716  -12.5457  -16.5137 H         1 <0>         0.1257
     71 H32         4.3644  -13.8014  -14.3060 H         1 <0>         0.1412
     72 H33         4.6157  -12.0416  -14.1655 H         1 <0>         0.1353
     73 H34         3.0007  -13.0449  -12.5893 H         1 <0>         0.4335
     74 H35         1.9402   -8.5548  -18.8607 H         1 <0>         0.4009
     75 H36         0.7407   -7.1726  -16.2935 H         1 <0>         0.3994
     76 H37         1.9873  -13.3024  -13.8648 H         1 <0>         0.4287
@<TRIPOS>BOND
     1    1    2 1
     2    1   40 1
     3    1   41 1
     4    1   42 1
     5    2    3 1
     6    2   43 1
     7    2   44 1
     8    3    4 1
     9    3   45 1
    10    3   46 1
    11    4    5 1
    12    4   47 1
    13    4   48 1
    14    5    6 1
    15    5   49 1
    16    5   50 1
    17    6    7 1
    18    6   51 1
    19    6   52 1
    20    7    8 am
    21    7   53 1
    22    8    9 2
    23    8   10 am
    24   10   11 1
    25   10   54 1
    26   11   16 ar
    27   11   12 ar
    28   12   13 ar
    29   12   55 1
    30   13   14 ar
    31   13   56 1
    32   14   15 ar
    33   14   17 1
    34   15   16 ar
    35   15   57 1
    36   16   58 1
    37   17   18 2
    38   17   19 2
    39   17   20 1
    40   20   21 1
    41   20   59 1
    42   21   26 ar
    43   21   22 ar
    44   22   23 ar
    45   22   60 1
    46   23   24 ar
    47   23   61 1
    48   24   25 ar
    49   24   27 1
    50   25   26 ar
    51   25   62 1
    52   26   63 1
    53   27   28 1
    54   27   64 1
    55   27   65 1
    56   28   37 1
    57   28   29 1
    58   28   66 1
    59   29   34 ar
    60   29   30 ar
    61   30   31 ar
    62   30   67 1
    63   31   32 ar
    64   31   39 1
    65   32   33 ar
    66   32   38 1
    67   33   34 ar
    68   33   68 1
    69   34   35 1
    70   35   36 1
    71   35   69 1
    72   35   70 1
    73   36   37 1
    74   36   71 1
    75   36   72 1
    76   37   73 1
    77   37   76 1
    78   38   74 1
    79   39   75 1
@<TRIPOS>MOLECULE
CHEMBL74085__1
   75    78     0     0     0
SMALL
USER_CHARGES

@<TRIPOS>ATOM
      1 C1         -6.9266    2.8114    3.5973 C.3       1 <0>        -0.1546
      2 C2         -7.4874    1.3886    3.6395 C.3       1 <0>        -0.1265
      3 C3         -6.5793    0.4583    2.8328 C.3       1 <0>        -0.1197
      4 C4         -7.1401   -0.9646    2.8751 C.3       1 <0>        -0.1177
      5 C5         -6.2319   -1.8949    2.0684 C.3       1 <0>        -0.1318
      6 C6         -6.7928   -3.3178    2.1107 C.3       1 <0>         0.1349
      7 N1         -5.9232   -4.2085    1.3383 N.am      1 <0>        -0.7386
      8 C7         -6.2219   -5.5187    1.2347 C.2       1 <0>         0.7033
      9 O1         -7.2131   -5.9614    1.7824 O.2       1 <0>        -0.5655
     10 N2         -5.4220   -6.3382    0.5241 N.am      1 <0>        -0.6893
     11 C8         -5.6766   -7.7140    0.4969 C.ar      1 <0>         0.2261
     12 C9         -4.6216   -8.6163    0.4622 C.ar      1 <0>        -0.1688
     13 C10        -4.8763   -9.9735    0.4359 C.ar      1 <0>         0.0061
     14 C11        -6.1801  -10.4342    0.4441 C.ar      1 <0>        -0.6934
     15 C12        -7.2328   -9.5382    0.4782 C.ar      1 <0>         0.0032
     16 C13        -6.9847   -8.1799    0.5104 C.ar      1 <0>        -0.1412
     17 S1         -6.5007  -12.1664    0.4105 S.o2      1 <0>         2.6917
     18 O2         -7.7543  -12.3349   -0.2370 O.2       1 <0>        -0.9502
     19 O3         -5.3123  -12.7904   -0.0561 O.2       1 <0>        -0.9488
     20 N3         -6.7082  -12.6565    1.9787 N.pl3     1 <0>        -1.0563
     21 C14        -5.6549  -12.5478    2.8895 C.ar      1 <0>         0.1414
     22 C15        -4.3755  -12.9478    2.5252 C.ar      1 <0>        -0.1509
     23 C16        -3.3362  -12.8385    3.4281 C.ar      1 <0>        -0.0943
     24 C17        -3.5682  -12.3321    4.6938 C.ar      1 <0>        -0.0937
     25 C18        -4.8407  -11.9330    5.0597 C.ar      1 <0>        -0.0930
     26 C19        -5.8833  -12.0342    4.1598 C.ar      1 <0>        -0.1253
     27 C20        -2.4319  -12.2153    5.6767 C.3       1 <0>        -0.0742
     28 C21        -1.7678  -10.8450    5.5281 C.3       1 <0>         0.1361
     29 C22        -0.5445  -10.7875    6.4054 C.ar      1 <0>        -0.0668
     30 C23         0.2859  -11.8986    6.4508 C.ar      1 <0>        -0.1262
     31 C24         1.4229  -11.8913    7.2384 C.ar      1 <0>         0.0787
     32 C25         1.7347  -10.7614    7.9892 C.ar      1 <0>         0.0832
     33 C26         0.9030   -9.6571    7.9425 C.ar      1 <0>        -0.1326
     34 C27        -0.2373   -9.6704    7.1525 C.ar      1 <0>        -0.0566
     35 C28        -1.1176   -8.4467    7.1439 C.3       1 <0>        -0.0774
     36 C29        -2.0578   -8.4881    5.9390 C.3       1 <0>         0.0549
     37 N4         -2.7231   -9.8003    5.9101 N.3       1 <0>        -0.6779
     38 O4          2.8518  -10.7432    8.7647 O.3       1 <0>        -0.4877
     39 O5          2.2324  -12.9833    7.2793 O.3       1 <0>        -0.4868
     40 H1         -7.5736    3.4742    4.1720 H         1 <0>         0.0544
     41 H2         -5.9246    2.8200    4.0263 H         1 <0>         0.0535
     42 H3         -6.8820    3.1539    2.5634 H         1 <0>         0.0535
     43 H4         -7.5320    1.0461    4.6734 H         1 <0>         0.0617
     44 H5         -8.4894    1.3801    3.2105 H         1 <0>         0.0617
     45 H6         -6.5347    0.8007    1.7990 H         1 <0>         0.0621
     46 H7         -5.5773    0.4668    3.2619 H         1 <0>         0.0620
     47 H8         -7.1846   -1.3070    3.9090 H         1 <0>         0.0668
     48 H9         -8.1421   -0.9731    2.4460 H         1 <0>         0.0669
     49 H10        -6.1874   -1.5525    1.0346 H         1 <0>         0.0701
     50 H11        -5.2300   -1.8864    2.4975 H         1 <0>         0.0699
     51 H12        -6.8373   -3.6602    3.1445 H         1 <0>         0.0703
     52 H13        -7.7947   -3.3263    1.6816 H         1 <0>         0.0704
     53 H14        -5.1324   -3.8554    0.9013 H         1 <0>         0.3992
     54 H15        -4.6697   -5.9743    0.0315 H         1 <0>         0.4113
     55 H16        -3.6031   -8.2572    0.4555 H         1 <0>         0.1354
     56 H17        -4.0562  -10.6758    0.4086 H         1 <0>         0.1449
     57 H18        -8.2500   -9.9011    0.4841 H         1 <0>         0.1424
     58 H19        -7.8073   -7.4807    0.5418 H         1 <0>         0.1514
     59 H20        -7.5613  -13.0190    2.2646 H         1 <0>         0.4277
     60 H21        -4.1938  -13.3441    1.5371 H         1 <0>         0.1569
     61 H22        -2.3413  -13.1493    3.1455 H         1 <0>         0.1283
     62 H23        -5.0184  -11.5379    6.0490 H         1 <0>         0.1334
     63 H24        -6.8760  -11.7181    4.4447 H         1 <0>         0.1290
     64 H25        -2.8160  -12.3248    6.6909 H         1 <0>         0.0876
     65 H26        -1.6989  -12.9976    5.4794 H         1 <0>         0.0825
     66 H27        -1.4720  -10.6994    4.4891 H         1 <0>         0.0550
     67 H28         0.0429  -12.7743    5.8673 H         1 <0>         0.1363
     68 H29         1.1430   -8.7792    8.5239 H         1 <0>         0.1330
     69 H30        -1.7059   -8.4178    8.0610 H         1 <0>         0.0877
     70 H31        -0.4953   -7.5537    7.0867 H         1 <0>         0.0787
     71 H32        -2.8056   -7.7003    6.0309 H         1 <0>         0.0813
     72 H33        -1.4848   -8.3479    5.0224 H         1 <0>         0.0364
     73 H34        -3.5162   -9.7899    5.2865 H         1 <0>         0.3500
     74 H35         3.6403  -10.4157    8.3108 H         1 <0>         0.3873
     75 H36         2.9337  -12.9781    6.6136 H         1 <0>         0.3869
@<TRIPOS>BOND
     1    1    2 1
     2    1   40 1
     3    1   41 1
     4    1   42 1
     5    2    3 1
     6    2   43 1
     7    2   44 1
     8    3    4 1
     9    3   45 1
    10    3   46 1
    11    4    5 1
    12    4   47 1
    13    4   48 1
    14    5    6 1
    15    5   49 1
    16    5   50 1
    17    6    7 1
    18    6   51 1
    19    6   52 1
    20    7    8 am
    21    7   53 1
    22    8    9 2
    23    8   10 am
    24   10   11 1
    25   10   54 1
    26   11   16 ar
    27   11   12 ar
    28   12   13 ar
    29   12   55 1
    30   13   14 ar
    31   13   56 1
    32   14   15 ar
    33   14   17 1
    34   15   16 ar
    35   15   57 1
    36   16   58 1
    37   17   18 2
    38   17   19 2
    39   17   20 1
    40   20   21 1
    41   20   59 1
    42   21   26 ar
    43   21   22 ar
    44   22   23 ar
    45   22   60 1
    46   23   24 ar
    47   23   61 1
    48   24   25 ar
    49   24   27 1
    50   25   26 ar
    51   25   62 1
    52   26   63 1
    53   27   28 1
    54   27   64 1
    55   27   65 1
    56   28   37 1
    57   28   29 1
    58   28   66 1
    59   29   34 ar
    60   29   30 ar
    61   30   31 ar
    62   30   67 1
    63   31   32 ar
    64   31   39 1
    65   32   33 ar
    66   32   38 1
    67   33   34 ar
    68   33   68 1
    69   34   35 1
    70   35   36 1
    71   35   69 1
    72   35   70 1
    73   36   37 1
    74   36   71 1
    75   36   72 1
    76   37   73 1
    77   38   74 1
    78   39   75 1
@<TRIPOS>MOLECULE
CHEMBL74085__2
   76    79     0     0     0
SMALL
USER_CHARGES

@<TRIPOS>ATOM
      1 C1         13.3649  -21.0279  -14.0484 C.3       1 <0>        -0.1553
      2 C2         12.1144  -20.7941  -13.1985 C.3       1 <0>        -0.1267
      3 C3         12.0046  -19.3082  -12.8506 C.3       1 <0>        -0.1197
      4 C4         10.7541  -19.0745  -12.0006 C.3       1 <0>        -0.1180
      5 C5         10.6443  -17.5886  -11.6528 C.3       1 <0>        -0.1317
      6 C6          9.3938  -17.3548  -10.8028 C.3       1 <0>         0.1337
      7 N1          9.2887  -15.9321  -10.4697 N.am      1 <0>        -0.7363
      8 C7          8.2580  -15.4892   -9.7226 C.2       1 <0>         0.7021
      9 O1          7.4155  -16.2705   -9.3251 O.2       1 <0>        -0.5646
     10 N2          8.1613  -14.1803   -9.4162 N.am      1 <0>        -0.6907
     11 C8          7.0417  -13.7045   -8.7245 C.ar      1 <0>         0.2315
     12 C9          6.5290  -12.4464   -9.0122 C.ar      1 <0>        -0.1744
     13 C10         5.4236  -11.9799   -8.3282 C.ar      1 <0>        -0.0018
     14 C11         4.8275  -12.7640   -7.3576 C.ar      1 <0>        -0.6967
     15 C12         5.3360  -14.0170   -7.0684 C.ar      1 <0>         0.0075
     16 C13         6.4377  -14.4916   -7.7530 C.ar      1 <0>        -0.1382
     17 S1          3.4175  -12.1651   -6.4871 S.o2      1 <0>         2.6894
     18 O2          3.4445  -12.7730   -5.2030 O.2       1 <0>        -0.9375
     19 O3          3.4007  -10.7551   -6.6624 O.2       1 <0>        -0.9474
     20 N3          2.0774  -12.7542   -7.2615 N.pl3     1 <0>        -1.0600
     21 C14         1.8144  -12.3833   -8.5821 C.ar      1 <0>         0.1693
     22 C15         1.9314  -11.0540   -8.9683 C.ar      1 <0>        -0.1458
     23 C16         1.6711  -10.6907  -10.2750 C.ar      1 <0>        -0.1133
     24 C17         1.2938  -11.6484  -11.1985 C.ar      1 <0>        -0.1410
     25 C18         1.1764  -12.9725  -10.8174 C.ar      1 <0>        -0.0816
     26 C19         1.4408  -13.3436   -9.5137 C.ar      1 <0>        -0.1180
     27 C20         1.0096  -11.2481  -12.6233 C.3       1 <0>        -0.0973
     28 C21         2.2985  -11.3322  -13.4434 C.3       1 <0>         0.0887
     29 C22         1.9816  -11.0779  -14.8938 C.ar      1 <0>        -0.1206
     30 C23         0.8317  -11.6416  -15.4280 C.ar      1 <0>        -0.1060
     31 C24         0.5034  -11.4358  -16.7558 C.ar      1 <0>         0.0987
     32 C25         1.3329  -10.6592  -17.5599 C.ar      1 <0>         0.1133
     33 C26         2.4782  -10.0988  -17.0228 C.ar      1 <0>        -0.1186
     34 C27         2.8015  -10.3070  -15.6906 C.ar      1 <0>        -0.0804
     35 C28         4.0545   -9.6704  -15.1448 C.3       1 <0>        -0.1057
     36 C29         4.4361  -10.3312  -13.8196 C.3       1 <0>        -0.0044
     37 N4          3.2552  -10.3411  -12.9430 N.4       1 <0>        -0.5053
     38 O4          1.0194  -10.4528  -18.8670 O.3       1 <0>        -0.4816
     39 O5         -0.6256  -11.9896  -17.2737 O.3       1 <0>        -0.4807
     40 H1         13.2948  -20.4441  -14.9662 H         1 <0>         0.0533
     41 H2         14.2477  -20.7197  -13.4883 H         1 <0>         0.0542
     42 H3         13.4431  -22.0865  -14.2962 H         1 <0>         0.0557
     43 H4         11.2316  -21.1023  -13.7586 H         1 <0>         0.0614
     44 H5         12.1845  -21.3779  -12.2807 H         1 <0>         0.0624
     45 H6         12.8874  -19.0000  -12.2905 H         1 <0>         0.0629
     46 H7         11.9345  -18.7244  -13.7684 H         1 <0>         0.0616
     47 H8          9.8712  -19.3827  -12.5608 H         1 <0>         0.0664
     48 H9         10.8242  -19.6583  -11.0829 H         1 <0>         0.0679
     49 H10        11.5271  -17.2804  -11.0927 H         1 <0>         0.0714
     50 H11        10.5742  -17.0048  -12.5706 H         1 <0>         0.0693
     51 H12         8.5109  -17.6630  -11.3630 H         1 <0>         0.0705
     52 H13         9.4639  -17.9386   -9.8850 H         1 <0>         0.0724
     53 H14         9.9608  -15.3087  -10.7869 H         1 <0>         0.4000
     54 H15         8.8678  -13.5681   -9.6751 H         1 <0>         0.4124
     55 H16         6.9943  -11.8334   -9.7699 H         1 <0>         0.1345
     56 H17         5.0245  -11.0014   -8.5512 H         1 <0>         0.1424
     57 H18         4.8684  -14.6269   -6.3096 H         1 <0>         0.1451
     58 H19         6.8314  -15.4723   -7.5300 H         1 <0>         0.1545
     59 H20         1.4751  -13.3569   -6.7979 H         1 <0>         0.4338
     60 H21         2.2253  -10.3055   -8.2473 H         1 <0>         0.1665
     61 H22         1.7619   -9.6575  -10.5759 H         1 <0>         0.1297
     62 H23         0.8816  -13.7180  -11.5412 H         1 <0>         0.1352
     63 H24         1.3532  -14.3785   -9.2178 H         1 <0>         0.1389
     64 H25         0.2642  -11.9205  -13.0478 H         1 <0>         0.1230
     65 H26         0.6312  -10.2261  -12.6449 H         1 <0>         0.1026
     66 H27         2.7263  -12.3293  -13.3391 H         1 <0>         0.1499
     67 H28         0.1890  -12.2442  -14.8033 H         1 <0>         0.1473
     68 H29         3.1239   -9.4963  -17.6446 H         1 <0>         0.1464
     69 H30         4.8669   -9.7977  -15.8603 H         1 <0>         0.1259
     70 H31         3.8794   -8.6069  -14.9822 H         1 <0>         0.1078
     71 H32         4.7646  -11.3543  -14.0021 H         1 <0>         0.1352
     72 H33         5.2386   -9.7653  -13.3463 H         1 <0>         0.1429
     73 H34         2.8266   -9.4277  -12.9435 H         1 <0>         0.4286
     74 H35         0.4704   -9.6718  -19.0212 H         1 <0>         0.4007
     75 H36        -1.4093  -11.4281  -17.1986 H         1 <0>         0.3991
     76 H37         3.5336  -10.5845  -12.0043 H         1 <0>         0.4333
@<TRIPOS>BOND
     1    1    2 1
     2    1   40 1
     3    1   41 1
     4    1   42 1
     5    2    3 1
     6    2   43 1
     7    2   44 1
     8    3    4 1
     9    3   45 1
    10    3   46 1
    11    4    5 1
    12    4   47 1
    13    4   48 1
    14    5    6 1
    15    5   49 1
    16    5   50 1
    17    6    7 1
    18    6   51 1
    19    6   52 1
    20    7    8 am
    21    7   53 1
    22    8    9 2
    23    8   10 am
    24   10   11 1
    25   10   54 1
    26   11   16 ar
    27   11   12 ar
    28   12   13 ar
    29   12   55 1
    30   13   14 ar
    31   13   56 1
    32   14   15 ar
    33   14   17 1
    34   15   16 ar
    35   15   57 1
    36   16   58 1
    37   17   18 2
    38   17   19 2
    39   17   20 1
    40   20   21 1
    41   20   59 1
    42   21   26 ar
    43   21   22 ar
    44   22   23 ar
    45   22   60 1
    46   23   24 ar
    47   23   61 1
    48   24   25 ar
    49   24   27 1
    50   25   26 ar
    51   25   62 1
    52   26   63 1
    53   27   28 1
    54   27   64 1
    55   27   65 1
    56   28   37 1
    57   28   29 1
    58   28   66 1
    59   29   34 ar
    60   29   30 ar
    61   30   31 ar
    62   30   67 1
    63   31   32 ar
    64   31   39 1
    65   32   33 ar
    66   32   38 1
    67   33   34 ar
    68   33   68 1
    69   34   35 1
    70   35   36 1
    71   35   69 1
    72   35   70 1
    73   36   37 1
    74   36   71 1
    75   36   72 1
    76   37   73 1
    77   37   76 1
    78   38   74 1
    79   39   75 1
@<TRIPOS>MOLECULE
CHEMBL74085__3
   75    78     0     0     0
SMALL
USER_CHARGES

@<TRIPOS>ATOM
      1 C1         -6.9266    2.8114    3.5973 C.3       1 <0>        -0.1546
      2 C2         -7.4874    1.3886    3.6395 C.3       1 <0>        -0.1266
      3 C3         -6.5793    0.4583    2.8328 C.3       1 <0>        -0.1197
      4 C4         -7.1401   -0.9646    2.8751 C.3       1 <0>        -0.1178
      5 C5         -6.2319   -1.8949    2.0684 C.3       1 <0>        -0.1318
      6 C6         -6.7928   -3.3178    2.1107 C.3       1 <0>         0.1350
      7 N1         -5.9232   -4.2085    1.3383 N.am      1 <0>        -0.7390
      8 C7         -6.2219   -5.5187    1.2347 C.2       1 <0>         0.7036
      9 O1         -7.2131   -5.9614    1.7824 O.2       1 <0>        -0.5662
     10 N2         -5.4220   -6.3382    0.5241 N.am      1 <0>        -0.6888
     11 C8         -5.6766   -7.7140    0.4969 C.ar      1 <0>         0.2248
     12 C9         -4.6216   -8.6163    0.4622 C.ar      1 <0>        -0.1656
     13 C10        -4.8763   -9.9735    0.4359 C.ar      1 <0>         0.0102
     14 C11        -6.1801  -10.4342    0.4441 C.ar      1 <0>        -0.6937
     15 C12        -7.2328   -9.5382    0.4782 C.ar      1 <0>         0.0015
     16 C13        -6.9847   -8.1799    0.5104 C.ar      1 <0>        -0.1426
     17 S1         -6.5007  -12.1664    0.4105 S.o2      1 <0>         2.6922
     18 O2         -7.7543  -12.3349   -0.2370 O.2       1 <0>        -0.9525
     19 O3         -5.3123  -12.7904   -0.0561 O.2       1 <0>        -0.9487
     20 N3         -6.7082  -12.6565    1.9787 N.pl3     1 <0>        -1.0567
     21 C14        -5.6549  -12.5478    2.8895 C.ar      1 <0>         0.1398
     22 C15        -4.3755  -12.9478    2.5252 C.ar      1 <0>        -0.1516
     23 C16        -3.3362  -12.8385    3.4281 C.ar      1 <0>        -0.0719
     24 C17        -3.5682  -12.3321    4.6938 C.ar      1 <0>        -0.0780
     25 C18        -4.8407  -11.9330    5.0597 C.ar      1 <0>        -0.1002
     26 C19        -5.8833  -12.0342    4.1598 C.ar      1 <0>        -0.1266
     27 C20        -2.4319  -12.2153    5.6767 C.3       1 <0>        -0.0753
     28 C21        -1.7678  -10.8450    5.5281 C.3       1 <0>         0.1343
     29 C22        -0.7313  -10.6750    6.6081 C.ar      1 <0>        -0.1055
     30 C23        -1.0434  -11.0980    7.8925 C.ar      1 <0>        -0.1233
     31 C24        -0.1258  -10.9586    8.9179 C.ar      1 <0>         0.0801
     32 C25         1.1179  -10.3899    8.6581 C.ar      1 <0>         0.0830
     33 C26         1.4253   -9.9716    7.3759 C.ar      1 <0>        -0.1296
     34 C27         0.5021  -10.1157    6.3506 C.ar      1 <0>        -0.0687
     35 C28         0.8884   -9.6549    4.9683 C.3       1 <0>        -0.1201
     36 C29        -0.3601   -9.5105    4.0978 C.3       1 <0>         0.0560
     37 N4         -1.1486  -10.7485    4.2025 N.3       1 <0>        -0.6651
     38 O4          2.0262  -10.2459    9.6601 O.3       1 <0>        -0.4878
     39 O5         -0.4374  -11.3748   10.1745 O.3       1 <0>        -0.4873
     40 H1         -7.5736    3.4742    4.1720 H         1 <0>         0.0543
     41 H2         -5.9246    2.8200    4.0263 H         1 <0>         0.0535
     42 H3         -6.8820    3.1539    2.5634 H         1 <0>         0.0535
     43 H4         -7.5320    1.0461    4.6734 H         1 <0>         0.0616
     44 H5         -8.4894    1.3801    3.2105 H         1 <0>         0.0617
     45 H6         -6.5347    0.8007    1.7990 H         1 <0>         0.0621
     46 H7         -5.5773    0.4668    3.2619 H         1 <0>         0.0620
     47 H8         -7.1846   -1.3070    3.9090 H         1 <0>         0.0667
     48 H9         -8.1421   -0.9731    2.4460 H         1 <0>         0.0668
     49 H10        -6.1874   -1.5525    1.0346 H         1 <0>         0.0702
     50 H11        -5.2300   -1.8864    2.4975 H         1 <0>         0.0700
     51 H12        -6.8373   -3.6602    3.1445 H         1 <0>         0.0699
     52 H13        -7.7947   -3.3263    1.6816 H         1 <0>         0.0702
     53 H14        -5.1324   -3.8554    0.9013 H         1 <0>         0.3992
     54 H15        -4.6697   -5.9743    0.0315 H         1 <0>         0.4111
     55 H16        -3.6031   -8.2572    0.4555 H         1 <0>         0.1362
     56 H17        -4.0562  -10.6758    0.4086 H         1 <0>         0.1465
     57 H18        -8.2500   -9.9011    0.4841 H         1 <0>         0.1411
     58 H19        -7.8073   -7.4807    0.5418 H         1 <0>         0.1503
     59 H20        -7.5613  -13.0190    2.2646 H         1 <0>         0.4265
     60 H21        -4.1938  -13.3441    1.5371 H         1 <0>         0.1553
     61 H22        -2.3413  -13.1493    3.1455 H         1 <0>         0.1271
     62 H23        -5.0184  -11.5379    6.0490 H         1 <0>         0.1234
     63 H24        -6.8760  -11.7181    4.4447 H         1 <0>         0.1259
     64 H25        -2.8160  -12.3248    6.6909 H         1 <0>         0.0824
     65 H26        -1.6989  -12.9976    5.4794 H         1 <0>         0.0768
     66 H27        -2.5235  -10.0661    5.6296 H         1 <0>         0.0974
     67 H28        -2.0089  -11.5386    8.0926 H         1 <0>         0.1369
     68 H29         2.3895   -9.5299    7.1720 H         1 <0>         0.1325
     69 H30         1.3953   -8.6923    5.0363 H         1 <0>         0.0824
     70 H31         1.5608  -10.3852    4.5182 H         1 <0>         0.0809
     71 H32        -0.9550   -8.6669    4.4478 H         1 <0>         0.0760
     72 H33        -0.0667   -9.3499    3.0604 H         1 <0>         0.0859
     73 H34        -0.5778  -11.5581    4.0103 H         1 <0>         0.3428
     74 H35         2.6165  -11.0042    9.7677 H         1 <0>         0.3881
     75 H36        -0.2006  -12.2950   10.3541 H         1 <0>         0.3879
@<TRIPOS>BOND
     1    1    2 1
     2    1   40 1
     3    1   41 1
     4    1   42 1
     5    2    3 1
     6    2   43 1
     7    2   44 1
     8    3    4 1
     9    3   45 1
    10    3   46 1
    11    4    5 1
    12    4   47 1
    13    4   48 1
    14    5    6 1
    15    5   49 1
    16    5   50 1
    17    6    7 1
    18    6   51 1
    19    6   52 1
    20    7    8 am
    21    7   53 1
    22    8    9 2
    23    8   10 am
    24   10   11 1
    25   10   54 1
    26   11   16 ar
    27   11   12 ar
    28   12   13 ar
    29   12   55 1
    30   13   14 ar
    31   13   56 1
    32   14   15 ar
    33   14   17 1
    34   15   16 ar
    35   15   57 1
    36   16   58 1
    37   17   18 2
    38   17   19 2
    39   17   20 1
    40   20   21 1
    41   20   59 1
    42   21   26 ar
    43   21   22 ar
    44   22   23 ar
    45   22   60 1
    46   23   24 ar
    47   23   61 1
    48   24   25 ar
    49   24   27 1
    50   25   26 ar
    51   25   62 1
    52   26   63 1
    53   27   28 1
    54   27   64 1
    55   27   65 1
    56   28   37 1
    57   28   29 1
    58   28   66 1
    59   29   34 ar
    60   29   30 ar
    61   30   31 ar
    62   30   67 1
    63   31   32 ar
    64   31   39 1
    65   32   33 ar
    66   32   38 1
    67   33   34 ar
    68   33   68 1
    69   34   35 1
    70   35   36 1
    71   35   69 1
    72   35   70 1
    73   36   37 1
    74   36   71 1
    75   36   72 1
    76   37   73 1
    77   38   74 1
    78   39   75 1
@<TRIPOS>MOLECULE
CHEMBL458923
   66    69     0     0     0
SMALL
USER_CHARGES

@<TRIPOS>ATOM
      1 C1         -5.0084    1.3640    3.8728 C.3       1 <0>        -0.1509
      2 C2         -4.9744   -0.1653    3.8386 C.3       1 <0>        -0.1316
      3 C3         -4.5538   -0.6350    2.4446 C.3       1 <0>         0.1216
      4 N1         -4.5213   -2.0993    2.4118 N.pl3     1 <0>        -0.7514
      5 C4         -4.1625   -2.7639    1.2365 C.ar      1 <0>         0.2104
      6 C5         -3.8317   -2.0367    0.1029 C.ar      1 <0>        -0.1482
      7 C6         -3.4729   -2.7028   -1.0705 C.ar      1 <0>        -0.0710
      8 C7         -3.4491   -4.0991   -1.0966 C.ar      1 <0>        -0.1307
      9 C8         -3.7810   -4.8173    0.0401 C.ar      1 <0>         0.0910
     10 C9         -4.1319   -4.1522    1.2063 C.ar      1 <0>        -0.2226
     11 O1         -3.7578   -6.1758    0.0149 O.3       1 <0>        -0.2495
     12 C10        -4.9402   -6.8362    0.1266 C.ar      1 <0>         0.1473
     13 C11        -6.1355   -6.1310    0.1287 C.ar      1 <0>        -0.1732
     14 C12        -7.3293   -6.8108    0.2395 C.ar      1 <0>        -0.0738
     15 C13        -7.3477   -8.1958    0.3513 C.ar      1 <0>        -0.1292
     16 C14        -6.1626   -8.8974    0.3546 C.ar      1 <0>        -0.0589
     17 C15        -4.9590   -8.2164    0.2333 C.ar      1 <0>        -0.1505
     18 C16        -6.1086  -10.3969    0.4887 C.3       1 <0>        -0.0887
     19 C17        -7.4698  -11.0140    0.1743 C.3       1 <0>         0.0246
     20 H1         -7.6905  -10.8951   -0.8865 H         1 <0>         0.1460
     21 C18        -8.5337  -10.2894    1.0073 C.3       1 <0>        -0.1355
     22 C19        -8.6896   -8.8716    0.4614 C.3       1 <0>        -0.0688
     23 N2         -7.4575  -12.4417    0.5200 N.4       1 <0>        -0.5014
     24 C20        -6.5040  -13.1471   -0.3467 C.3       1 <0>        -0.0481
     25 C21        -6.4912  -14.6341    0.0134 C.3       1 <0>         0.1378
     26 H2         -7.4883  -15.0509   -0.1284 H         1 <0>         0.1336
     27 C22        -5.5131  -15.3578   -0.8758 C.ar      1 <0>        -0.1291
     28 C23        -4.1738  -15.4052   -0.5355 C.ar      1 <0>        -0.1024
     29 C24        -3.2761  -16.0687   -1.3505 C.ar      1 <0>        -0.0960
     30 C25        -3.7169  -16.6851   -2.5067 C.ar      1 <0>        -0.0920
     31 C26        -5.0567  -16.6381   -2.8477 C.ar      1 <0>        -0.0314
     32 C27        -5.9558  -15.9788   -2.0282 C.ar      1 <0>        -0.0948
     33 Cl1        -5.6109  -17.4120   -4.2995 Cl        1 <0>        -0.0502
     34 O2         -6.0994  -14.7902    1.3787 O.3       1 <0>        -0.5465
     35 C28        -3.1204   -1.9339   -2.2797 C.2       1 <0>         0.5193
     36 O3         -3.1423   -0.7114   -2.2549 O.co2     1 <0>        -0.6779
     37 O4         -2.8065   -2.5191   -3.3065 O.co2     1 <0>        -0.6800
     38 H3         -5.3080    1.6986    4.8659 H         1 <0>         0.0575
     39 H4         -4.0175    1.7546    3.6414 H         1 <0>         0.0594
     40 H5         -5.7238    1.7281    3.1355 H         1 <0>         0.0589
     41 H6         -4.2590   -0.5294    4.5759 H         1 <0>         0.0652
     42 H7         -5.9654   -0.5559    4.0700 H         1 <0>         0.0643
     43 H8         -5.2692   -0.2709    1.7072 H         1 <0>         0.0618
     44 H9         -3.5629   -0.2443    2.2132 H         1 <0>         0.0624
     45 H10        -4.7489   -2.6073    3.2062 H         1 <0>         0.3935
     46 H11        -3.8518   -0.9572    0.1276 H         1 <0>         0.1341
     47 H12        -3.1725   -4.6182   -2.0024 H         1 <0>         0.1335
     48 H13        -4.3858   -4.7157    2.0919 H         1 <0>         0.1161
     49 H14        -6.1303   -5.0544    0.0441 H         1 <0>         0.1418
     50 H15        -8.2594   -6.2618    0.2399 H         1 <0>         0.1288
     51 H16        -4.0300   -8.7672    0.2265 H         1 <0>         0.1320
     52 H17        -5.3659  -10.7931   -0.2036 H         1 <0>         0.0970
     53 H18        -5.8232  -10.6564    1.5082 H         1 <0>         0.0961
     54 H19        -9.4834  -10.8189    0.9306 H         1 <0>         0.0911
     55 H20        -8.2187  -10.2488    2.0500 H         1 <0>         0.0927
     56 H21        -9.3278   -8.2963    1.1321 H         1 <0>         0.0935
     57 H22        -9.1522   -8.9149   -0.5247 H         1 <0>         0.0845
     58 H23        -7.1808  -12.5519    1.4841 H         1 <0>         0.4296
     59 H24        -6.8029  -13.0281   -1.3882 H         1 <0>         0.1467
     60 H25        -5.5069  -12.7303   -0.2049 H         1 <0>         0.1399
     61 H26        -3.8289  -14.9231    0.3673 H         1 <0>         0.1304
     62 H27        -2.2301  -16.1054   -1.0842 H         1 <0>         0.1423
     63 H28        -3.0152  -17.2030   -3.1439 H         1 <0>         0.1425
     64 H29        -7.0027  -15.9456   -2.2916 H         1 <0>         0.1384
     65 H30        -5.2200  -14.4407    1.5780 H         1 <0>         0.3893
     66 H31        -8.3805  -12.8275    0.3888 H         1 <0>         0.4294
@<TRIPOS>BOND
     1    1    2 1
     2    1   38 1
     3    1   39 1
     4    1   40 1
     5    2    3 1
     6    2   41 1
     7    2   42 1
     8    3    4 1
     9    3   43 1
    10    3   44 1
    11    4    5 1
    12    4   45 1
    13    5   10 ar
    14    5    6 ar
    15    6    7 ar
    16    6   46 1
    17    7    8 ar
    18    7   35 1
    19    8    9 ar
    20    8   47 1
    21    9   10 ar
    22    9   11 1
    23   10   48 1
    24   11   12 1
    25   12   17 ar
    26   12   13 ar
    27   13   14 ar
    28   13   49 1
    29   14   15 ar
    30   14   50 1
    31   15   22 1
    32   15   16 ar
    33   16   17 ar
    34   16   18 1
    35   17   51 1
    36   18   19 1
    37   18   52 1
    38   18   53 1
    39   19   20 1
    40   19   21 1
    41   19   23 1
    42   21   22 1
    43   21   54 1
    44   21   55 1
    45   22   56 1
    46   22   57 1
    47   23   24 1
    48   23   58 1
    49   23   66 1
    50   24   25 1
    51   24   59 1
    52   24   60 1
    53   25   26 1
    54   25   27 1
    55   25   34 1
    56   27   32 ar
    57   27   28 ar
    58   28   29 ar
    59   28   61 1
    60   29   30 ar
    61   29   62 1
    62   30   31 ar
    63   30   63 1
    64   31   32 ar
    65   31   33 1
    66   32   64 1
    67   34   65 1
    68   35   36 2
    69   35   37 1
@<TRIPOS>MOLECULE
CHEMBL1084891
   72    73     0     0     0
SMALL
USER_CHARGES

@<TRIPOS>ATOM
      1 C1         -0.0184    1.5028    0.0103 C.3       1 <0>        -0.1150
      2 C2          0.0021   -0.0041    0.0020 C.ar      1 <0>        -0.0853
      3 C3          0.0057   -0.6887   -1.1989 C.ar      1 <0>        -0.1148
      4 C4          0.0245   -2.0708   -1.2065 C.ar      1 <0>        -0.0837
      5 C5          0.0400   -2.7685   -0.0132 C.ar      1 <0>        -0.1056
      6 C6          0.0373   -2.0839    1.1877 C.ar      1 <0>        -0.0838
      7 C7          0.0229   -0.7016    1.1953 C.ar      1 <0>        -0.1046
      8 C8          0.0537   -2.8444    2.4887 C.3       1 <0>         0.1035
      9 O1          1.4060   -3.0674    2.8930 O.3       1 <0>        -0.3741
     10 C9          1.5344   -3.7848    4.1222 C.3       1 <0>         0.0615
     11 C10         3.0168   -3.9649    4.4552 C.3       1 <0>         0.0659
     12 O2          3.6087   -2.6874    4.6996 O.3       1 <0>        -0.3803
     13 C11         4.9998   -2.7433    5.0215 C.3       1 <0>         0.0603
     14 C12         5.5251   -1.3265    5.2617 C.3       1 <0>        -0.1198
     15 C13         7.0145   -1.3864    5.6063 C.3       1 <0>        -0.1181
     16 C14         7.5398    0.0304    5.8466 C.3       1 <0>        -0.1168
     17 C15         9.0293   -0.0295    6.1912 C.3       1 <0>        -0.1500
     18 C16         9.5545    1.3873    6.4314 C.3       1 <0>        -0.0105
     19 N1         10.9846    1.3298    6.7623 N.4       1 <0>        -0.5057
     20 C17        11.4890    2.6901    6.9930 C.3       1 <0>        -0.0427
     21 C18        12.9784    2.6302    7.3376 C.3       1 <0>         0.1377
     22 H1         13.5246    2.1754    6.5112 H         1 <0>         0.1325
     23 C19        13.4958    4.0256    7.5742 C.ar      1 <0>        -0.1554
     24 C20        13.3708    4.6056    8.8234 C.ar      1 <0>        -0.0897
     25 C21        13.8438    5.8847    9.0427 C.ar      1 <0>        -0.1374
     26 C22        14.4451    6.5875    8.0085 C.ar      1 <0>         0.1336
     27 C23        14.5697    6.0034    6.7566 C.ar      1 <0>        -0.1102
     28 C24        14.0996    4.7217    6.5437 C.ar      1 <0>        -0.0623
     29 C25        15.2223    6.7640    5.6311 C.3       1 <0>         0.1174
     30 O3         15.2311    5.9561    4.4524 O.3       1 <0>        -0.5756
     31 O4         14.9109    7.8463    8.2217 O.3       1 <0>        -0.4942
     32 O5         13.1630    1.8471    8.5186 O.3       1 <0>        -0.5480
     33 C26         0.0274   -2.8172   -2.5157 C.3       1 <0>        -0.1163
     34 H2          1.0042    1.8801    0.0026 H         1 <0>         0.0698
     35 H3         -0.5455    1.8639   -0.8728 H         1 <0>         0.0678
     36 H4         -0.5286    1.8543    0.9071 H         1 <0>         0.0666
     37 H5         -0.0064   -0.1436   -2.1312 H         1 <0>         0.1229
     38 H6          0.0540   -3.8484   -0.0191 H         1 <0>         0.1217
     39 H7          0.0245   -0.1667    2.1335 H         1 <0>         0.1210
     40 H8         -0.4637   -2.2661    3.2541 H         1 <0>         0.0588
     41 H9         -0.4485   -3.8026    2.3557 H         1 <0>         0.0587
     42 H10         1.0476   -3.2261    4.9215 H         1 <0>         0.0591
     43 H11         1.0629   -4.7626    4.0231 H         1 <0>         0.0674
     44 H12         3.1164   -4.5875    5.3443 H         1 <0>         0.0656
     45 H13         3.5218   -4.4449    3.6170 H         1 <0>         0.0591
     46 H14         5.1406   -3.3406    5.9223 H         1 <0>         0.0475
     47 H15         5.5460   -3.1980    4.1950 H         1 <0>         0.0486
     48 H16         5.3843   -0.7292    4.3609 H         1 <0>         0.0738
     49 H17         4.9789   -0.8718    6.0882 H         1 <0>         0.0725
     50 H18         7.1553   -1.9837    6.5072 H         1 <0>         0.0684
     51 H19         7.5607   -1.8411    4.7799 H         1 <0>         0.0688
     52 H20         7.3990    0.6277    4.9457 H         1 <0>         0.0761
     53 H21         6.9936    0.4851    6.6730 H         1 <0>         0.0756
     54 H22         9.1700   -0.6268    7.0921 H         1 <0>         0.0883
     55 H23         9.5754   -0.4842    5.3647 H         1 <0>         0.0886
     56 H24         9.4138    1.9846    5.5306 H         1 <0>         0.1325
     57 H25         9.0084    1.8420    7.2579 H         1 <0>         0.1316
     58 H26        11.1149    0.7768    7.5962 H         1 <0>         0.4314
     59 H27        11.3482    3.2874    6.0921 H         1 <0>         0.1450
     60 H28        10.9428    3.1448    7.8195 H         1 <0>         0.1366
     61 H29        12.9027    4.0581    9.6280 H         1 <0>         0.1275
     62 H30        13.7453    6.3374   10.0183 H         1 <0>         0.1403
     63 H31        14.2000    4.2649    5.5702 H         1 <0>         0.1419
     64 H32        14.6633    7.6800    5.4395 H         1 <0>         0.0706
     65 H33        16.2464    7.0144    5.9076 H         1 <0>         0.0653
     66 H34        15.6373    6.3832    3.6858 H         1 <0>         0.3932
     67 H35        15.8314    7.8805    8.5159 H         1 <0>         0.4011
     68 H36        12.7039    2.1936    9.2960 H         1 <0>         0.3878
     69 H37         1.0557   -2.9831   -2.8370 H         1 <0>         0.0711
     70 H38        -0.4727   -3.7772   -2.3878 H         1 <0>         0.0675
     71 H39        -0.4985   -2.2310   -3.2693 H         1 <0>         0.0679
     72 H40        11.4902    0.9088    5.9973 H         1 <0>         0.4294
@<TRIPOS>BOND
     1    1    2 1
     2    1   34 1
     3    1   35 1
     4    1   36 1
     5    2    7 ar
     6    2    3 ar
     7    3    4 ar
     8    3   37 1
     9    4    5 ar
    10    4   33 1
    11    5    6 ar
    12    5   38 1
    13    6    7 ar
    14    6    8 1
    15    7   39 1
    16    8    9 1
    17    8   40 1
    18    8   41 1
    19    9   10 1
    20   10   11 1
    21   10   42 1
    22   10   43 1
    23   11   12 1
    24   11   44 1
    25   11   45 1
    26   12   13 1
    27   13   14 1
    28   13   46 1
    29   13   47 1
    30   14   15 1
    31   14   48 1
    32   14   49 1
    33   15   16 1
    34   15   50 1
    35   15   51 1
    36   16   17 1
    37   16   52 1
    38   16   53 1
    39   17   18 1
    40   17   54 1
    41   17   55 1
    42   18   19 1
    43   18   56 1
    44   18   57 1
    45   19   20 1
    46   19   58 1
    47   19   72 1
    48   20   21 1
    49   20   59 1
    50   20   60 1
    51   21   22 1
    52   21   23 1
    53   21   32 1
    54   23   28 ar
    55   23   24 ar
    56   24   25 ar
    57   24   61 1
    58   25   26 ar
    59   25   62 1
    60   26   27 ar
    61   26   31 1
    62   27   28 ar
    63   27   29 1
    64   28   63 1
    65   29   30 1
    66   29   64 1
    67   29   65 1
    68   30   66 1
    69   31   67 1
    70   32   68 1
    71   33   69 1
    72   33   70 1
    73   33   71 1
@<TRIPOS>MOLECULE
CHEMBL1221735
   51    54     0     0     0
SMALL
USER_CHARGES

@<TRIPOS>ATOM
      1 C1         -0.2493    1.6520    0.1132 C.3       1 <0>        -0.1372
      2 C2         -0.0755    0.1340    0.0341 C.3       1 <0>        -0.0787
      3 C3          0.7237   -0.3974   -1.1948 C.3       1 <0>        -0.1323
      4 C4          1.1855   -1.8126   -0.7784 C.3       1 <0>        -0.1341
      5 C5          0.6218   -2.0031    0.6628 C.3       1 <0>        -0.0900
      6 H1          1.1025   -2.7745    1.2644 H         1 <0>         0.1166
      7 C6          0.7210   -0.5351    1.2094 C.3       1 <0>        -0.0518
      8 C7          2.1684   -0.0437    1.2746 C.3       1 <0>        -0.1428
      9 C8          0.0059   -0.3733    2.5523 C.3       1 <0>        -0.1492
     10 C9         -0.9172   -2.1546    0.4632 C.3       1 <0>        -0.1354
     11 C10        -1.3895   -0.7050    0.0620 C.3       1 <0>         0.0191
     12 H2         -2.0873   -0.2940    0.7916 H         1 <0>         0.1433
     13 N1         -2.0032   -0.7399   -1.2722 N.4       1 <0>        -0.5024
     14 C11        -3.3114   -1.4035   -1.1922 C.3       1 <0>        -0.0469
     15 C12        -3.9506   -1.4399   -2.5818 C.3       1 <0>         0.1630
     16 H3         -3.3045   -1.9915   -3.2646 H         1 <0>         0.1140
     17 C13        -5.2926   -2.1207   -2.4997 C.ar      1 <0>        -0.2327
     18 C14        -6.4460   -1.3686   -2.3582 C.ar      1 <0>        -0.0378
     19 C15        -7.6677   -2.0149   -2.2853 C.ar      1 <0>        -0.2397
     20 C16        -7.7537   -3.3896   -2.3513 C.ar      1 <0>         0.3004
     21 C17        -6.5955   -4.1786   -2.4952 C.ar      1 <0>        -0.0294
     22 C18        -5.3770   -3.4908   -2.5708 C.ar      1 <0>        -0.0470
     23 S1         -4.1859   -4.7961   -2.7534 S.3       1 <0>        -0.1201
     24 C19        -5.3241   -6.1715   -2.7303 C.2       1 <0>         0.5379
     25 O1         -5.0838   -7.3613   -2.8206 O.2       1 <0>        -0.4760
     26 N2         -6.5153   -5.5606   -2.5757 N.am      1 <0>        -0.6195
     27 H4         -7.3256   -6.0921   -2.5325 H         1 <0>         0.4154
     28 O2         -8.9709   -3.9909   -2.2760 O.3       1 <0>        -0.6867
     29 O3         -4.1222   -0.1050   -3.0622 O.3       1 <0>        -0.5547
     30 H5          0.7303    2.1299    0.1226 H         1 <0>         0.0802
     31 H6         -0.8144    1.9986   -0.7520 H         1 <0>         0.0625
     32 H7         -0.7877    1.9090    1.0255 H         1 <0>         0.0731
     33 H8          0.0798   -0.4508   -2.0727 H         1 <0>         0.0554
     34 H9          1.5852    0.2405   -1.3926 H         1 <0>         0.0930
     35 H10         0.7686   -2.5618   -1.4516 H         1 <0>         0.0734
     36 H11         2.2740   -1.8705   -0.7715 H         1 <0>         0.0828
     37 H12         2.1792    1.0355    1.4276 H         1 <0>         0.0621
     38 H13         2.6813   -0.5331    2.1025 H         1 <0>         0.0648
     39 H14         2.6759   -0.2832    0.3402 H         1 <0>         0.0651
     40 H15        -0.9776   -0.8402    2.4988 H         1 <0>         0.0596
     41 H16         0.5929   -0.8515    3.3364 H         1 <0>         0.0675
     42 H17        -0.1071    0.6870    2.7784 H         1 <0>         0.0639
     43 H18        -1.1288   -2.8810   -0.3215 H         1 <0>         0.0927
     44 H19        -1.3939   -2.4529    1.3970 H         1 <0>         0.1016
     45 H20        -2.1244    0.2026   -1.6114 H         1 <0>         0.4255
     46 H21        -3.1804   -2.4217   -0.8257 H         1 <0>         0.1399
     47 H22        -3.9575   -0.8518   -0.5093 H         1 <0>         0.1353
     48 H23        -6.3933   -0.2912   -2.3049 H         1 <0>         0.1129
     49 H24        -8.5701   -1.4319   -2.1745 H         1 <0>         0.1174
     50 H25        -4.6874    0.4448   -2.5024 H         1 <0>         0.3834
     51 H26        -1.4051   -1.2506   -1.9043 H         1 <0>         0.4227
@<TRIPOS>BOND
     1    1    2 1
     2    1   30 1
     3    1   31 1
     4    1   32 1
     5    2    7 1
     6    2   11 1
     7    2    3 1
     8    3    4 1
     9    3   33 1
    10    3   34 1
    11    4    5 1
    12    4   35 1
    13    4   36 1
    14    5    6 1
    15    5    7 1
    16    5   10 1
    17    7    8 1
    18    7    9 1
    19    8   37 1
    20    8   38 1
    21    8   39 1
    22    9   40 1
    23    9   41 1
    24    9   42 1
    25   10   11 1
    26   10   43 1
    27   10   44 1
    28   11   12 1
    29   11   13 1
    30   13   14 1
    31   13   45 1
    32   13   51 1
    33   14   15 1
    34   14   46 1
    35   14   47 1
    36   15   16 1
    37   15   17 1
    38   15   29 1
    39   17   22 ar
    40   17   18 ar
    41   18   19 ar
    42   18   48 1
    43   19   20 ar
    44   19   49 1
    45   20   21 ar
    46   20   28 1
    47   21   26 1
    48   21   22 ar
    49   22   23 1
    50   23   24 1
    51   24   25 2
    52   24   26 am
    53   26   27 1
    54   29   50 1
@<TRIPOS>MOLECULE
CHEMBL1221803
   42    44     0     0     0
SMALL
USER_CHARGES

@<TRIPOS>ATOM
      1 C1         -0.0167    1.3784    0.0096 C.ar      1 <0>        -0.1446
      2 C2          1.1698    2.0883    0.0021 C.ar      1 <0>        -0.0783
      3 C3          2.3773    1.4175   -0.0134 C.ar      1 <0>        -0.1428
      4 C4          2.3989    0.0304   -0.0210 C.ar      1 <0>         0.1155
      5 C5          1.2070   -0.6796   -0.0130 C.ar      1 <0>        -0.2044
      6 C6          0.0021   -0.0041    0.0020 C.ar      1 <0>        -0.0796
      7 O1          3.5855   -0.6319   -0.0368 O.3       1 <0>        -0.3270
      8 C7          3.5315   -2.0598   -0.0438 C.3       1 <0>         0.0264
      9 C8          4.9536   -2.6239   -0.0615 C.3       1 <0>        -0.0003
     10 N1          5.6374   -2.2671    1.1887 N.4       1 <0>        -0.5059
     11 C9          7.0028   -2.8087    1.1717 C.3       1 <0>        -0.0462
     12 C10         7.7151   -2.4370    2.4738 C.3       1 <0>         0.1624
     13 H1          7.1687   -2.8554    3.3191 H         1 <0>         0.1155
     14 C11         9.1159   -2.9926    2.4565 C.ar      1 <0>        -0.2342
     15 C12        10.1733   -2.1993    2.0458 C.ar      1 <0>        -0.0375
     16 C13        11.4514   -2.7302    2.0383 C.ar      1 <0>        -0.2396
     17 C14        11.6871   -4.0308    2.4316 C.ar      1 <0>         0.3005
     18 C15        10.6290   -4.8594    2.8539 C.ar      1 <0>        -0.0295
     19 C16         9.3498   -4.2876    2.8537 C.ar      1 <0>        -0.0473
     20 S1          8.3162   -5.6072    3.4423 S.3       1 <0>        -0.1206
     21 C17         9.5920   -6.8357    3.6677 C.2       1 <0>         0.5381
     22 O2          9.4852   -7.9814    4.0648 O.2       1 <0>        -0.4758
     23 N2         10.7013   -6.1784    3.2760 N.am      1 <0>        -0.6196
     24 H2         11.5602   -6.6283    3.3012 H         1 <0>         0.4155
     25 O3         12.9558   -4.5193    2.4110 O.3       1 <0>        -0.6860
     26 O4          7.7685   -1.0144    2.5983 O.3       1 <0>        -0.5539
     27 H3         -0.9596    1.9047    0.0260 H         1 <0>         0.1294
     28 H4          1.1525    3.1682    0.0080 H         1 <0>         0.1351
     29 H5          3.3038    1.9724   -0.0200 H         1 <0>         0.1338
     30 H6          1.2211   -1.7595   -0.0193 H         1 <0>         0.1277
     31 H7         -0.9260   -0.5563    0.0082 H         1 <0>         0.1296
     32 H8          3.0134   -2.4083    0.8497 H         1 <0>         0.0869
     33 H9          2.9951   -2.3988   -0.9302 H         1 <0>         0.1076
     34 H10         4.9129   -3.7090   -0.1564 H         1 <0>         0.1514
     35 H11         5.4999   -2.2055   -0.9067 H         1 <0>         0.1419
     36 H12         5.6751   -1.2626    1.2766 H         1 <0>         0.4353
     37 H13         6.9622   -3.8938    1.0768 H         1 <0>         0.1415
     38 H14         7.5492   -2.3902    0.3265 H         1 <0>         0.1374
     39 H15        10.0030   -1.1792    1.7349 H         1 <0>         0.1134
     40 H16        12.2792   -2.1148    1.7183 H         1 <0>         0.1176
     41 H17         8.2412   -0.5741    1.8787 H         1 <0>         0.3841
     42 H18         5.1317   -2.6544    1.9711 H         1 <0>         0.4260
@<TRIPOS>BOND
     1    1    6 ar
     2    1    2 ar
     3    1   27 1
     4    2    3 ar
     5    2   28 1
     6    3    4 ar
     7    3   29 1
     8    4    5 ar
     9    4    7 1
    10    5    6 ar
    11    5   30 1
    12    6   31 1
    13    7    8 1
    14    8    9 1
    15    8   32 1
    16    8   33 1
    17    9   10 1
    18    9   34 1
    19    9   35 1
    20   10   11 1
    21   10   36 1
    22   10   42 1
    23   11   12 1
    24   11   37 1
    25   11   38 1
    26   12   13 1
    27   12   14 1
    28   12   26 1
    29   14   19 ar
    30   14   15 ar
    31   15   16 ar
    32   15   39 1
    33   16   17 ar
    34   16   40 1
    35   17   18 ar
    36   17   25 1
    37   18   23 1
    38   18   19 ar
    39   19   20 1
    40   20   21 1
    41   21   22 2
    42   21   23 am
    43   23   24 1
    44   26   41 1
@<TRIPOS>MOLECULE
CHEMBL1221803__1
   41    43     0     0     0
SMALL
USER_CHARGES

@<TRIPOS>ATOM
      1 C1         -0.0167    1.3784    0.0096 C.ar      1 <0>        -0.1638
      2 C2          1.1698    2.0883    0.0021 C.ar      1 <0>        -0.0816
      3 C3          2.3773    1.4175   -0.0134 C.ar      1 <0>        -0.1542
      4 C4          2.3989    0.0304   -0.0210 C.ar      1 <0>         0.1366
      5 C5          1.2070   -0.6796   -0.0130 C.ar      1 <0>        -0.2102
      6 C6          0.0021   -0.0041    0.0020 C.ar      1 <0>        -0.0813
      7 O1          3.5855   -0.6319   -0.0368 O.3       1 <0>        -0.3141
      8 C7          3.5315   -2.0598   -0.0438 C.3       1 <0>         0.0606
      9 C8          4.9536   -2.6239   -0.0615 C.3       1 <0>         0.0609
     10 N1          5.6374   -2.2671    1.1887 N.3       1 <0>        -0.6845
     11 C9          7.0088   -2.7933    1.2073 C.3       1 <0>         0.0328
     12 C10         7.6873   -2.4023    2.5217 C.3       1 <0>         0.1758
     13 H1          7.1267   -2.8195    3.3582 H         1 <0>         0.1023
     14 C11         9.0942   -2.9421    2.5408 C.ar      1 <0>        -0.2013
     15 C12        10.1517   -2.1404    2.1469 C.ar      1 <0>        -0.0459
     16 C13        11.4355   -2.6568    2.1729 C.ar      1 <0>        -0.2447
     17 C14        11.6767   -3.9512    2.5830 C.ar      1 <0>         0.2914
     18 C15        10.6187   -4.7881    2.9888 C.ar      1 <0>        -0.0414
     19 C16         9.3335   -4.2308    2.9548 C.ar      1 <0>        -0.0470
     20 S1          8.3017   -5.5569    3.5317 S.3       1 <0>        -0.0969
     21 C17         9.5857   -6.7689    3.7967 C.2       1 <0>         0.5256
     22 O2          9.4827   -7.9122    4.2014 O.2       1 <0>        -0.4947
     23 N2         10.6961   -6.1024    3.4242 N.am      1 <0>        -0.6190
     24 H2         11.5593   -6.5423    3.4727 H         1 <0>         0.4087
     25 O3         12.9510   -4.4254    2.5953 O.3       1 <0>        -0.7147
     26 O4          7.7220   -0.9782    2.6346 O.3       1 <0>        -0.5568
     27 H3         -0.9596    1.9047    0.0260 H         1 <0>         0.1213
     28 H4          1.1525    3.1682    0.0080 H         1 <0>         0.1274
     29 H5          3.3038    1.9724   -0.0200 H         1 <0>         0.1302
     30 H6          1.2211   -1.7595   -0.0193 H         1 <0>         0.1275
     31 H7         -0.9260   -0.5563    0.0082 H         1 <0>         0.1227
     32 H8          3.0134   -2.4083    0.8497 H         1 <0>         0.0738
     33 H9          2.9951   -2.3988   -0.9302 H         1 <0>         0.0650
     34 H10         4.9129   -3.7090   -0.1564 H         1 <0>         0.0925
     35 H11         5.4999   -2.2055   -0.9067 H         1 <0>         0.0393
     36 H12         5.6314   -1.2683    1.3318 H         1 <0>         0.3527
     37 H13         6.9824   -3.8795    1.1212 H         1 <0>         0.0825
     38 H14         7.5695   -2.3760    0.3708 H         1 <0>         0.0341
     39 H15         9.9772   -1.1250    1.8232 H         1 <0>         0.1107
     40 H16        12.2634   -2.0348    1.8661 H         1 <0>         0.1106
     41 H17         8.2059   -0.5388    1.9220 H         1 <0>         0.3672
@<TRIPOS>BOND
     1    1    6 ar
     2    1    2 ar
     3    1   27 1
     4    2    3 ar
     5    2   28 1
     6    3    4 ar
     7    3   29 1
     8    4    5 ar
     9    4    7 1
    10    5    6 ar
    11    5   30 1
    12    6   31 1
    13    7    8 1
    14    8    9 1
    15    8   32 1
    16    8   33 1
    17    9   10 1
    18    9   34 1
    19    9   35 1
    20   10   11 1
    21   10   36 1
    22   11   12 1
    23   11   37 1
    24   11   38 1
    25   12   13 1
    26   12   14 1
    27   12   26 1
    28   14   19 ar
    29   14   15 ar
    30   15   16 ar
    31   15   39 1
    32   16   17 ar
    33   16   40 1
    34   17   18 ar
    35   17   25 1
    36   18   23 1
    37   18   19 ar
    38   19   20 1
    39   20   21 1
    40   21   22 2
    41   21   23 am
    42   23   24 1
    43   26   41 1
@<TRIPOS>MOLECULE
CHEMBL1221802
   65    68     0     0     0
SMALL
USER_CHARGES

@<TRIPOS>ATOM
      1 C1          0.1870    1.1495   -0.0666 C.ar      1 <0>        -0.0380
      2 C2          1.4267    1.7656   -0.0842 C.ar      1 <0>        -0.2395
      3 C3          2.5911    1.0279   -0.0629 C.ar      1 <0>         0.3008
      4 C4          2.5524   -0.3802   -0.0220 C.ar      1 <0>        -0.0265
      5 C5          1.2816   -0.9693   -0.0047 C.ar      1 <0>        -0.0479
      6 C6          0.1212   -0.2321   -0.0264 C.ar      1 <0>        -0.2389
      7 C7         -1.2165   -0.9257   -0.0061 C.3       1 <0>         0.1646
      8 H1         -1.1514   -1.8228    0.6097 H         1 <0>         0.1158
      9 C8         -1.6116   -1.3137   -1.4324 C.3       1 <0>        -0.0483
     10 N1         -2.9156   -1.9899   -1.4126 N.4       1 <0>        -0.5024
     11 C9         -3.2948   -2.3624   -2.7820 C.3       1 <0>         0.0220
     12 C10        -3.5160   -1.0963   -3.6141 C.3       1 <0>        -0.1405
     13 C11        -3.9698   -1.4896   -5.0217 C.3       1 <0>         0.0584
     14 N2         -5.2139   -2.2651   -4.9376 N.3       1 <0>        -0.5328
     15 C12        -5.0141   -3.5090   -4.1831 C.3       1 <0>         0.0486
     16 C13        -4.5916   -3.1760   -2.7504 C.3       1 <0>        -0.1395
     17 C14        -5.7533   -2.5419   -6.2756 C.3       1 <0>         0.0267
     18 C15        -7.1615   -3.1261   -6.1470 C.3       1 <0>        -0.0171
     19 N3         -7.7514   -3.2807   -7.4834 N.4       1 <0>        -0.3635
     20 C16        -9.1813   -3.6141   -7.3339 C.3       1 <0>        -0.0021
     21 C17        -9.9007   -3.1879   -8.5891 C.3       1 <0>        -0.1498
     22 C18       -10.0583   -4.3612   -9.5742 C.3       1 <0>        -0.1321
     23 C19        -8.7861   -5.2304   -9.6371 C.3       1 <0>        -0.1397
     24 C20        -7.5254   -4.4042   -9.6353 C.3       1 <0>        -0.1352
     25 C21        -7.0277   -4.2478   -8.1832 C.3       1 <0>        -0.0384
     26 O1         -2.2015   -0.0450    0.5381 O.3       1 <0>        -0.5538
     27 S1          1.6421   -2.7082    0.0464 S.3       1 <0>        -0.1251
     28 C22         3.4235   -2.5892    0.0430 C.2       1 <0>         0.5394
     29 O2          4.2473   -3.4850    0.0693 O.2       1 <0>        -0.4721
     30 N4          3.6259   -1.2576    0.0038 N.am      1 <0>        -0.6199
     31 H2          4.5312   -0.9094   -0.0064 H         1 <0>         0.4169
     32 O3          3.7914    1.6666   -0.0821 O.3       1 <0>        -0.6803
     33 H3         -0.7172    1.7399   -0.0795 H         1 <0>         0.1122
     34 H4          1.4826    2.8437   -0.1155 H         1 <0>         0.1182
     35 H5         -1.6767   -0.4167   -2.0481 H         1 <0>         0.1363
     36 H6         -0.8602   -1.9855   -1.8474 H         1 <0>         0.1408
     37 H7         -2.8552   -2.8203   -0.8426 H         1 <0>         0.4291
     38 H8         -2.5008   -2.9598   -3.2301 H         1 <0>         0.1372
     39 H9         -4.2826   -0.4808   -3.1434 H         1 <0>         0.1002
     40 H10        -2.5843   -0.5340   -3.6759 H         1 <0>         0.1033
     41 H11        -4.1419   -0.5899   -5.6125 H         1 <0>         0.1018
     42 H12        -3.1968   -2.0935   -5.4970 H         1 <0>         0.0558
     43 H13        -5.9449   -4.0761   -4.1647 H         1 <0>         0.0936
     44 H14        -4.2363   -4.1035   -4.6623 H         1 <0>         0.0558
     45 H15        -4.4283   -4.0996   -2.1951 H         1 <0>         0.0995
     46 H16        -5.3751   -2.5932   -2.2661 H         1 <0>         0.0994
     47 H17        -5.7951   -1.6159   -6.8491 H         1 <0>         0.1028
     48 H18        -5.1085   -3.2569   -6.7866 H         1 <0>         0.0649
     49 H19        -7.1079   -4.0992   -5.6587 H         1 <0>         0.1293
     50 H20        -7.7805   -2.4547   -5.5520 H         1 <0>         0.1437
     51 H21        -9.2952   -4.6888   -7.1922 H         1 <0>         0.1334
     52 H22        -9.5944   -3.0840   -6.4757 H         1 <0>         0.1353
     53 H23       -10.8882   -2.8107   -8.3232 H         1 <0>         0.1099
     54 H24        -9.3342   -2.3912   -9.0714 H         1 <0>         0.0823
     55 H25       -10.8968   -4.9812   -9.2570 H         1 <0>         0.0812
     56 H26       -10.2672   -3.9650  -10.5680 H         1 <0>         0.0829
     57 H27        -8.7718   -5.8981   -8.7757 H         1 <0>         0.0686
     58 H28        -8.8134   -5.8308  -10.5464 H         1 <0>         0.0877
     59 H29        -6.7612   -4.9037  -10.2308 H         1 <0>         0.1097
     60 H30        -7.7332   -3.4209  -10.0573 H         1 <0>         0.0884
     61 H31        -5.9760   -3.9618   -8.1978 H         1 <0>         0.1284
     62 H32        -7.1262   -5.2044   -7.6699 H         1 <0>         0.1271
     63 H33        -2.3134    0.7761    0.0396 H         1 <0>         0.3831
     64 H34        -7.6753   -2.4020   -7.9736 H         1 <0>         0.4198
     65 H35        -3.6111   -1.3680   -1.0283 H         1 <0>         0.4286
@<TRIPOS>BOND
     1    1    6 ar
     2    1    2 ar
     3    1   33 1
     4    2    3 ar
     5    2   34 1
     6    3    4 ar
     7    3   32 1
     8    4   30 1
     9    4    5 ar
    10    5    6 ar
    11    5   27 1
    12    6    7 1
    13    7    8 1
    14    7    9 1
    15    7   26 1
    16    9   10 1
    17    9   35 1
    18    9   36 1
    19   10   11 1
    20   10   37 1
    21   10   65 1
    22   11   16 1
    23   11   12 1
    24   11   38 1
    25   12   13 1
    26   12   39 1
    27   12   40 1
    28   13   14 1
    29   13   41 1
    30   13   42 1
    31   14   15 1
    32   14   17 1
    33   15   16 1
    34   15   43 1
    35   15   44 1
    36   16   45 1
    37   16   46 1
    38   17   18 1
    39   17   47 1
    40   17   48 1
    41   18   19 1
    42   18   49 1
    43   18   50 1
    44   19   25 1
    45   19   20 1
    46   19   64 1
    47   20   21 1
    48   20   51 1
    49   20   52 1
    50   21   22 1
    51   21   53 1
    52   21   54 1
    53   22   23 1
    54   22   55 1
    55   22   56 1
    56   23   24 1
    57   23   57 1
    58   23   58 1
    59   24   25 1
    60   24   59 1
    61   24   60 1
    62   25   61 1
    63   25   62 1
    64   26   63 1
    65   27   28 1
    66   28   29 2
    67   28   30 am
    68   30   31 1
@<TRIPOS>MOLECULE
CHEMBL1221801
   57    60     0     0     0
SMALL
USER_CHARGES

@<TRIPOS>ATOM
      1 C1         -0.0167    1.3796    0.0096 C.ar      1 <0>        -0.0378
      2 C2          1.1829    2.0705    0.0019 C.ar      1 <0>        -0.2400
      3 C3          2.3903    1.4051   -0.0137 C.ar      1 <0>         0.3004
      4 C4          2.4377   -0.0032   -0.0217 C.ar      1 <0>        -0.0286
      5 C5          1.2054   -0.6693   -0.0130 C.ar      1 <0>        -0.0474
      6 C6          0.0021   -0.0041    0.0020 C.ar      1 <0>        -0.2321
      7 C7         -1.2907   -0.7785    0.0107 C.3       1 <0>         0.1632
      8 H1         -1.1640   -1.6905    0.5940 H         1 <0>         0.1145
      9 C8         -1.6778   -1.1407   -1.4245 C.3       1 <0>        -0.0499
     10 N1         -2.9380   -1.8956   -1.4160 N.4       1 <0>        -0.5051
     11 C9         -3.3097   -2.2434   -2.7940 C.3       1 <0>         0.0283
     12 C10        -3.6090   -0.9651   -3.5796 C.3       1 <0>        -0.1428
     13 C11        -4.7646   -0.2157   -2.9133 C.3       1 <0>        -0.1359
     14 C12        -6.0081   -1.1069   -2.8966 C.3       1 <0>        -0.1287
     15 C13        -5.7089   -2.3853   -2.1110 C.3       1 <0>        -0.1323
     16 C14        -4.5533   -3.1346   -2.7773 C.3       1 <0>        -0.1014
     17 C15        -4.2540   -4.4130   -1.9917 C.3       1 <0>        -0.0967
     18 C16        -5.4975   -5.3042   -1.9750 C.3       1 <0>        -0.1126
     19 C17        -5.1983   -6.5826   -1.1894 C.3       1 <0>        -0.1229
     20 C18        -4.0427   -7.3319   -1.8557 C.3       1 <0>        -0.1235
     21 C19        -2.7992   -6.4407   -1.8724 C.3       1 <0>        -0.1228
     22 C20        -3.0984   -5.1623   -2.6580 C.3       1 <0>        -0.1240
     23 O1         -2.3211    0.0211    0.5946 O.3       1 <0>        -0.5544
     24 S1          1.6714   -2.3835   -0.0263 S.3       1 <0>        -0.1189
     25 C21         3.4422   -2.1558   -0.0424 C.2       1 <0>         0.5375
     26 O2          4.3192   -2.9998   -0.0552 O.2       1 <0>        -0.4761
     27 N2          3.5628   -0.8137   -0.0368 N.am      1 <0>        -0.6197
     28 H2          4.4451   -0.4107   -0.0434 H         1 <0>         0.4153
     29 O3          3.5491    2.1163   -0.0218 O.3       1 <0>        -0.6868
     30 H3         -0.9553    1.9136    0.0259 H         1 <0>         0.1126
     31 H4          1.1728    3.1505    0.0078 H         1 <0>         0.1172
     32 H5         -1.8046   -0.2287   -2.0078 H         1 <0>         0.1374
     33 H6         -0.8919   -1.7507   -1.8699 H         1 <0>         0.1406
     34 H7         -2.8207   -2.7399   -0.8761 H         1 <0>         0.4223
     35 H8         -2.4865   -2.7773   -3.2687 H         1 <0>         0.1409
     36 H9         -2.7231   -0.3301   -3.5915 H         1 <0>         0.0913
     37 H10        -3.8848   -1.2231   -4.6021 H         1 <0>         0.1087
     38 H11        -4.4888    0.0423   -1.8909 H         1 <0>         0.0599
     39 H12        -4.9778    0.6950   -3.4730 H         1 <0>         0.0902
     40 H13        -6.8314   -0.5731   -2.4219 H         1 <0>         0.0782
     41 H14        -6.2839   -1.3650   -3.9191 H         1 <0>         0.0764
     42 H15        -5.4330   -2.1272   -1.0885 H         1 <0>         0.0596
     43 H16        -6.5948   -3.0202   -2.0991 H         1 <0>         0.0921
     44 H17        -4.8291   -3.3927   -3.7998 H         1 <0>         0.1165
     45 H18        -3.9782   -4.1549   -0.9692 H         1 <0>         0.0657
     46 H19        -6.3208   -4.7704   -1.5003 H         1 <0>         0.0694
     47 H20        -5.7734   -5.5623   -2.9975 H         1 <0>         0.0695
     48 H21        -4.9225   -6.3245   -0.1669 H         1 <0>         0.0631
     49 H22        -6.0842   -7.2175   -1.1775 H         1 <0>         0.0669
     50 H23        -3.8295   -8.2426   -1.2960 H         1 <0>         0.0656
     51 H24        -4.3185   -7.5900   -2.8782 H         1 <0>         0.0635
     52 H25        -2.5234   -6.1826   -0.8499 H         1 <0>         0.0641
     53 H26        -1.9759   -6.9746   -2.3471 H         1 <0>         0.0691
     54 H27        -3.3742   -5.4204   -3.6805 H         1 <0>         0.0744
     55 H28        -2.2125   -4.5274   -2.6699 H         1 <0>         0.0595
     56 H29        -2.4884    0.8504    0.1263 H         1 <0>         0.3827
     57 H30        -3.6655   -1.3310   -1.0037 H         1 <0>         0.4238
@<TRIPOS>BOND
     1    1    6 ar
     2    1    2 ar
     3    1   30 1
     4    2    3 ar
     5    2   31 1
     6    3    4 ar
     7    3   29 1
     8    4   27 1
     9    4    5 ar
    10    5    6 ar
    11    5   24 1
    12    6    7 1
    13    7    8 1
    14    7    9 1
    15    7   23 1
    16    9   10 1
    17    9   32 1
    18    9   33 1
    19   10   11 1
    20   10   34 1
    21   10   57 1
    22   11   16 1
    23   11   12 1
    24   11   35 1
    25   12   13 1
    26   12   36 1
    27   12   37 1
    28   13   14 1
    29   13   38 1
    30   13   39 1
    31   14   15 1
    32   14   40 1
    33   14   41 1
    34   15   16 1
    35   15   42 1
    36   15   43 1
    37   16   17 1
    38   16   44 1
    39   17   22 1
    40   17   18 1
    41   17   45 1
    42   18   19 1
    43   18   46 1
    44   18   47 1
    45   19   20 1
    46   19   48 1
    47   19   49 1
    48   20   21 1
    49   20   50 1
    50   20   51 1
    51   21   22 1
    52   21   52 1
    53   21   53 1
    54   22   54 1
    55   22   55 1
    56   23   56 1
    57   24   25 1
    58   25   26 2
    59   25   27 am
    60   27   28 1
@<TRIPOS>MOLECULE
CHEMBL1221801__1
   57    60     0     0     0
SMALL
USER_CHARGES

@<TRIPOS>ATOM
      1 C1         -1.0707    1.7200    0.7794 C.ar      1 <0>        -0.0378
      2 C2         -0.0016    2.5816    0.9563 C.ar      1 <0>        -0.2402
      3 C3          1.2887    2.1070    1.0594 C.ar      1 <0>         0.3003
      4 C4          1.5570    0.7255    0.9876 C.ar      1 <0>        -0.0286
      5 C5          0.4519   -0.1165    0.8087 C.ar      1 <0>        -0.0475
      6 C6         -0.8344    0.3586    0.7057 C.ar      1 <0>        -0.2327
      7 C7         -1.9818   -0.5994    0.5138 C.3       1 <0>         0.1634
      8 H1         -1.7823   -1.5198    1.0625 H         1 <0>         0.1143
      9 C8         -2.1378   -0.9167   -0.9748 C.3       1 <0>        -0.0484
     10 N1         -3.2563   -1.8504   -1.1618 N.4       1 <0>        -0.5045
     11 C9         -3.4061   -2.1551   -2.5910 C.3       1 <0>         0.0249
     12 C10        -3.8254   -0.8892   -3.3411 C.3       1 <0>        -0.1396
     13 C11        -3.9815   -1.2065   -4.8297 C.3       1 <0>        -0.1166
     14 C12        -5.0512   -2.2851   -5.0118 C.3       1 <0>        -0.1289
     15 C13        -4.6318   -3.5510   -4.2618 C.3       1 <0>        -0.1145
     16 C14        -4.4758   -3.2337   -2.7732 C.3       1 <0>        -0.0997
     17 C15        -4.0565   -4.4996   -2.0231 C.3       1 <0>        -0.0959
     18 C16        -2.7841   -5.0685   -2.6543 C.3       1 <0>        -0.1250
     19 C17        -2.3648   -6.3344   -1.9042 C.3       1 <0>        -0.1230
     20 C18        -3.4851   -7.3729   -1.9903 C.3       1 <0>        -0.1232
     21 C19        -4.7575   -6.8040   -1.3591 C.3       1 <0>        -0.1227
     22 C20        -5.1768   -5.5381   -2.1092 C.3       1 <0>        -0.1127
     23 O1         -3.1856   -0.0047    1.0028 O.3       1 <0>        -0.5543
     24 S1          1.1793   -1.7367    0.7691 S.3       1 <0>        -0.1193
     25 C21         2.8822   -1.2460    0.9865 C.2       1 <0>         0.5376
     26 O2          3.8761   -1.9465    1.0419 O.2       1 <0>        -0.4760
     27 N2          2.7893    0.0954    1.0736 N.am      1 <0>        -0.6197
     28 H2          3.5922    0.6255    1.1977 H         1 <0>         0.4154
     29 O3          2.3147    2.9825    1.2318 O.3       1 <0>        -0.6867
     30 H3         -2.0768    2.1053    0.7043 H         1 <0>         0.1128
     31 H4         -0.1816    3.6449    1.0144 H         1 <0>         0.1172
     32 H5         -2.3373    0.0038   -1.5235 H         1 <0>         0.1373
     33 H6         -1.2196   -1.3703   -1.3478 H         1 <0>         0.1395
     34 H7         -3.0717   -2.7025   -0.6539 H         1 <0>         0.4231
     35 H8         -2.4565   -2.5145   -2.9874 H         1 <0>         0.1393
     36 H9         -4.7751   -0.5298   -2.9447 H         1 <0>         0.0862
     37 H10        -3.0634   -0.1207   -3.2113 H         1 <0>         0.0895
     38 H11        -4.2802   -0.3046   -5.3640 H         1 <0>         0.0824
     39 H12        -3.0318   -1.5659   -5.2260 H         1 <0>         0.0736
     40 H13        -6.0008   -1.9257   -4.6155 H         1 <0>         0.0686
     41 H14        -5.1623   -2.5112   -6.0723 H         1 <0>         0.0759
     42 H15        -5.3939   -4.3195   -4.3915 H         1 <0>         0.0841
     43 H16        -3.6822   -3.9105   -4.6581 H         1 <0>         0.0778
     44 H17        -5.4254   -2.8743   -2.3768 H         1 <0>         0.0948
     45 H18        -3.8661   -4.2563   -0.9778 H         1 <0>         0.0643
     46 H19        -2.9745   -5.3118   -3.6996 H         1 <0>         0.0777
     47 H20        -1.9860   -4.3287   -2.5930 H         1 <0>         0.0597
     48 H21        -1.4584   -6.7397   -2.3539 H         1 <0>         0.0684
     49 H22        -2.1744   -6.0911   -0.8589 H         1 <0>         0.0636
     50 H23        -3.6755   -7.6162   -3.0356 H         1 <0>         0.0633
     51 H24        -3.1864   -8.2748   -1.4559 H         1 <0>         0.0654
     52 H25        -5.5556   -7.5438   -1.4204 H         1 <0>         0.0668
     53 H26        -4.5671   -6.5607   -0.3138 H         1 <0>         0.0629
     54 H27        -6.0832   -5.1328   -1.6595 H         1 <0>         0.0659
     55 H28        -5.3672   -5.7814   -3.1545 H         1 <0>         0.0723
     56 H29        -3.4254    0.8203    0.5588 H         1 <0>         0.3832
     57 H30        -4.1063   -1.4305   -0.8165 H         1 <0>         0.4256
@<TRIPOS>BOND
     1    1    6 ar
     2    1    2 ar
     3    1   30 1
     4    2    3 ar
     5    2   31 1
     6    3    4 ar
     7    3   29 1
     8    4   27 1
     9    4    5 ar
    10    5    6 ar
    11    5   24 1
    12    6    7 1
    13    7    8 1
    14    7    9 1
    15    7   23 1
    16    9   10 1
    17    9   32 1
    18    9   33 1
    19   10   11 1
    20   10   34 1
    21   10   57 1
    22   11   16 1
    23   11   12 1
    24   11   35 1
    25   12   13 1
    26   12   36 1
    27   12   37 1
    28   13   14 1
    29   13   38 1
    30   13   39 1
    31   14   15 1
    32   14   40 1
    33   14   41 1
    34   15   16 1
    35   15   42 1
    36   15   43 1
    37   16   17 1
    38   16   44 1
    39   17   22 1
    40   17   18 1
    41   17   45 1
    42   18   19 1
    43   18   46 1
    44   18   47 1
    45   19   20 1
    46   19   48 1
    47   19   49 1
    48   20   21 1
    49   20   50 1
    50   20   51 1
    51   21   22 1
    52   21   52 1
    53   21   53 1
    54   22   54 1
    55   22   55 1
    56   23   56 1
    57   24   25 1
    58   25   26 2
    59   25   27 am
    60   27   28 1
@<TRIPOS>MOLECULE
CHEMBL1221801__2
   57    60     0     0     0
SMALL
USER_CHARGES

@<TRIPOS>ATOM
      1 C1         -0.4026    2.1119   -0.8304 C.ar      1 <0>        -0.0378
      2 C2          0.6675    2.9688   -1.0235 C.ar      1 <0>        -0.2401
      3 C3          1.9553    2.4894   -1.1346 C.ar      1 <0>         0.3003
      4 C4          2.2201    1.1077   -1.0539 C.ar      1 <0>        -0.0286
      5 C5          1.1141    0.2706   -0.8578 C.ar      1 <0>        -0.0475
      6 C6         -0.1697    0.7504   -0.7477 C.ar      1 <0>        -0.2325
      7 C7         -1.3182   -0.2024   -0.5373 C.3       1 <0>         0.1632
      8 H1         -0.9909   -1.0338    0.0870 H         1 <0>         0.1152
      9 C8         -1.7922   -0.7365   -1.8904 C.3       1 <0>        -0.0486
     10 N1         -2.9118   -1.6652   -1.6853 N.4       1 <0>        -0.5049
     11 C9         -3.3669   -2.1780   -2.9845 C.3       1 <0>         0.0258
     12 C10        -2.2637   -3.0341   -3.6097 C.3       1 <0>        -0.1420
     13 C11        -2.7377   -3.5682   -4.9628 C.3       1 <0>        -0.1159
     14 C12        -3.9931   -4.4199   -4.7635 C.3       1 <0>        -0.1293
     15 C13        -5.0963   -3.5638   -4.1383 C.3       1 <0>        -0.1139
     16 C14        -4.6222   -3.0297   -2.7852 C.3       1 <0>        -0.1004
     17 C15        -5.7254   -2.1735   -2.1600 C.3       1 <0>        -0.0965
     18 C16        -6.9669   -3.0355   -1.9222 C.3       1 <0>        -0.1134
     19 C17        -8.0701   -2.1794   -1.2969 C.3       1 <0>        -0.1227
     20 C18        -8.4213   -1.0295   -2.2431 C.3       1 <0>        -0.1233
     21 C19        -7.1798   -0.1675   -2.4810 C.3       1 <0>        -0.1222
     22 C20        -6.0766   -1.0236   -3.1062 C.3       1 <0>        -0.1246
     23 O1         -2.3936    0.4830    0.1076 O.3       1 <0>        -0.5545
     24 S1          1.8372   -1.3514   -0.8104 S.3       1 <0>        -0.1193
     25 C21         3.5395   -0.8678   -1.0472 C.2       1 <0>         0.5376
     26 O2          4.5308   -1.5717   -1.1053 O.2       1 <0>        -0.4760
     27 N2          3.4498    0.4732   -1.1453 N.am      1 <0>        -0.6197
     28 H2          4.2530    0.9997   -1.2812 H         1 <0>         0.4154
     29 O3          2.9822    3.3601   -1.3247 O.3       1 <0>        -0.6867
     30 H3         -1.4059    2.5015   -0.7410 H         1 <0>         0.1127
     31 H4          0.4902    4.0322   -1.0887 H         1 <0>         0.1172
     32 H5         -2.1196    0.0949   -2.5147 H         1 <0>         0.1348
     33 H6         -0.9719   -1.2592   -2.3823 H         1 <0>         0.1420
     34 H7         -2.6088   -2.4348   -1.1074 H         1 <0>         0.4234
     35 H8         -3.5962   -1.3418   -3.6450 H         1 <0>         0.1389
     36 H9         -1.3694   -2.4274   -3.7516 H         1 <0>         0.0909
     37 H10        -2.0344   -3.8703   -2.9491 H         1 <0>         0.0873
     38 H11        -2.9671   -2.7320   -5.6233 H         1 <0>         0.0730
     39 H12        -1.9518   -4.1782   -5.4082 H         1 <0>         0.0829
     40 H13        -4.3308   -4.8004   -5.7275 H         1 <0>         0.0758
     41 H14        -3.7637   -5.2561   -4.1030 H         1 <0>         0.0690
     42 H15        -5.3256   -2.7276   -4.7989 H         1 <0>         0.0767
     43 H16        -5.9906   -4.1705   -3.9964 H         1 <0>         0.0843
     44 H17        -4.3929   -3.8659   -2.1247 H         1 <0>         0.0950
     45 H18        -5.3767   -1.7687   -1.2099 H         1 <0>         0.0666
     46 H19        -7.3156   -3.4404   -2.8722 H         1 <0>         0.0726
     47 H20        -6.7167   -3.8548   -1.2481 H         1 <0>         0.0663
     48 H21        -8.9546   -2.7935   -1.1275 H         1 <0>         0.0669
     49 H22        -7.7214   -1.7746   -0.3469 H         1 <0>         0.0632
     50 H23        -8.7700   -1.4343   -3.1932 H         1 <0>         0.0634
     51 H24        -9.2072   -0.4196   -1.7977 H         1 <0>         0.0654
     52 H25        -7.4299    0.6517   -3.1551 H         1 <0>         0.0675
     53 H26        -6.8311    0.2373   -1.5309 H         1 <0>         0.0636
     54 H27        -5.1921   -0.4095   -3.2756 H         1 <0>         0.0576
     55 H28        -6.4253   -1.4284   -4.0563 H         1 <0>         0.0774
     56 H29        -2.7360    1.2365   -0.3926 H         1 <0>         0.3830
     57 H30        -3.6711   -1.1813   -1.2300 H         1 <0>         0.4255
@<TRIPOS>BOND
     1    1    6 ar
     2    1    2 ar
     3    1   30 1
     4    2    3 ar
     5    2   31 1
     6    3    4 ar
     7    3   29 1
     8    4   27 1
     9    4    5 ar
    10    5    6 ar
    11    5   24 1
    12    6    7 1
    13    7    8 1
    14    7    9 1
    15    7   23 1
    16    9   10 1
    17    9   32 1
    18    9   33 1
    19   10   11 1
    20   10   34 1
    21   10   57 1
    22   11   16 1
    23   11   12 1
    24   11   35 1
    25   12   13 1
    26   12   36 1
    27   12   37 1
    28   13   14 1
    29   13   38 1
    30   13   39 1
    31   14   15 1
    32   14   40 1
    33   14   41 1
    34   15   16 1
    35   15   42 1
    36   15   43 1
    37   16   17 1
    38   16   44 1
    39   17   22 1
    40   17   18 1
    41   17   45 1
    42   18   19 1
    43   18   46 1
    44   18   47 1
    45   19   20 1
    46   19   48 1
    47   19   49 1
    48   20   21 1
    49   20   50 1
    50   20   51 1
    51   21   22 1
    52   21   52 1
    53   21   53 1
    54   22   54 1
    55   22   55 1
    56   23   56 1
    57   24   25 1
    58   25   26 2
    59   25   27 am
    60   27   28 1
@<TRIPOS>MOLECULE
CHEMBL1221801__3
   57    60     0     0     0
SMALL
USER_CHARGES

@<TRIPOS>ATOM
      1 C1         -0.0167    1.3796    0.0096 C.ar      1 <0>        -0.0377
      2 C2          1.1829    2.0705    0.0019 C.ar      1 <0>        -0.2400
      3 C3          2.3903    1.4051   -0.0137 C.ar      1 <0>         0.3004
      4 C4          2.4377   -0.0032   -0.0217 C.ar      1 <0>        -0.0287
      5 C5          1.2054   -0.6693   -0.0130 C.ar      1 <0>        -0.0475
      6 C6          0.0021   -0.0041    0.0020 C.ar      1 <0>        -0.2321
      7 C7         -1.2907   -0.7785    0.0107 C.3       1 <0>         0.1633
      8 H1         -1.1640   -1.6905    0.5940 H         1 <0>         0.1140
      9 C8         -1.6778   -1.1407   -1.4245 C.3       1 <0>        -0.0501
     10 N1         -2.9380   -1.8956   -1.4160 N.4       1 <0>        -0.5052
     11 C9         -3.3097   -2.2434   -2.7940 C.3       1 <0>         0.0294
     12 C10        -2.2683   -3.2007   -3.3770 C.3       1 <0>        -0.1436
     13 C11        -2.2122   -4.4721   -2.5276 C.3       1 <0>        -0.1364
     14 C12        -3.5846   -5.1483   -2.5304 C.3       1 <0>        -0.1289
     15 C13        -4.6261   -4.1910   -1.9474 C.3       1 <0>        -0.1322
     16 C14        -4.6822   -2.9196   -2.7968 C.3       1 <0>        -0.1015
     17 C15        -5.7236   -1.9623   -2.2138 C.3       1 <0>        -0.0967
     18 C16        -7.0960   -2.6386   -2.2166 C.3       1 <0>        -0.1132
     19 C17        -8.1375   -1.6812   -1.6336 C.3       1 <0>        -0.1229
     20 C18        -8.1936   -0.4099   -2.4830 C.3       1 <0>        -0.1237
     21 C19        -6.8211    0.2663   -2.4802 C.3       1 <0>        -0.1221
     22 C20        -5.7797   -0.6910   -3.0632 C.3       1 <0>        -0.1231
     23 O1         -2.3211    0.0211    0.5946 O.3       1 <0>        -0.5544
     24 S1          1.6714   -2.3835   -0.0263 S.3       1 <0>        -0.1191
     25 C21         3.4422   -2.1558   -0.0424 C.2       1 <0>         0.5375
     26 O2          4.3192   -2.9998   -0.0552 O.2       1 <0>        -0.4761
     27 N2          3.5628   -0.8137   -0.0368 N.am      1 <0>        -0.6196
     28 H2          4.4451   -0.4107   -0.0434 H         1 <0>         0.4153
     29 O3          3.5491    2.1163   -0.0218 O.3       1 <0>        -0.6868
     30 H3         -0.9553    1.9136    0.0259 H         1 <0>         0.1128
     31 H4          1.1728    3.1505    0.0078 H         1 <0>         0.1172
     32 H5         -1.8046   -0.2287   -2.0078 H         1 <0>         0.1360
     33 H6         -0.8919   -1.7507   -1.8699 H         1 <0>         0.1421
     34 H7         -2.8207   -2.7399   -0.8761 H         1 <0>         0.4211
     35 H8         -3.3497   -1.3377   -3.3991 H         1 <0>         0.1401
     36 H9         -2.5441   -3.4588   -4.3995 H         1 <0>         0.1088
     37 H10        -1.2906   -2.7190   -3.3750 H         1 <0>         0.0923
     38 H11        -1.4703   -5.1541   -2.9430 H         1 <0>         0.0918
     39 H12        -1.9364   -4.2140   -1.5052 H         1 <0>         0.0597
     40 H13        -3.8605   -5.4063   -3.5529 H         1 <0>         0.0766
     41 H14        -3.5447   -6.0540   -1.9253 H         1 <0>         0.0784
     42 H15        -5.6038   -4.6727   -1.9494 H         1 <0>         0.0922
     43 H16        -4.3502   -3.9329   -0.9249 H         1 <0>         0.0586
     44 H17        -4.9580   -3.1777   -3.8193 H         1 <0>         0.1165
     45 H18        -5.4478   -1.7043   -1.1913 H         1 <0>         0.0669
     46 H19        -7.3719   -2.8966   -3.2390 H         1 <0>         0.0694
     47 H20        -7.0561   -3.5443   -1.6114 H         1 <0>         0.0698
     48 H21        -9.1152   -2.1630   -1.6355 H         1 <0>         0.0669
     49 H22        -7.8616   -1.4232   -0.6111 H         1 <0>         0.0634
     50 H23        -8.4694   -0.6680   -3.5054 H         1 <0>         0.0635
     51 H24        -8.9355    0.2721   -2.0676 H         1 <0>         0.0655
     52 H25        -6.8611    1.1720   -3.0853 H         1 <0>         0.0680
     53 H26        -6.5453    0.5244   -1.4577 H         1 <0>         0.0641
     54 H27        -4.8020   -0.2093   -3.0612 H         1 <0>         0.0581
     55 H28        -6.0556   -0.9491   -4.0857 H         1 <0>         0.0742
     56 H29        -2.4884    0.8504    0.1263 H         1 <0>         0.3831
     57 H30        -3.6655   -1.3310   -1.0037 H         1 <0>         0.4247
@<TRIPOS>BOND
     1    1    6 ar
     2    1    2 ar
     3    1   30 1
     4    2    3 ar
     5    2   31 1
     6    3    4 ar
     7    3   29 1
     8    4   27 1
     9    4    5 ar
    10    5    6 ar
    11    5   24 1
    12    6    7 1
    13    7    8 1
    14    7    9 1
    15    7   23 1
    16    9   10 1
    17    9   32 1
    18    9   33 1
    19   10   11 1
    20   10   34 1
    21   10   57 1
    22   11   16 1
    23   11   12 1
    24   11   35 1
    25   12   13 1
    26   12   36 1
    27   12   37 1
    28   13   14 1
    29   13   38 1
    30   13   39 1
    31   14   15 1
    32   14   40 1
    33   14   41 1
    34   15   16 1
    35   15   42 1
    36   15   43 1
    37   16   17 1
    38   16   44 1
    39   17   22 1
    40   17   18 1
    41   17   45 1
    42   18   19 1
    43   18   46 1
    44   18   47 1
    45   19   20 1
    46   19   48 1
    47   19   49 1
    48   20   21 1
    49   20   50 1
    50   20   51 1
    51   21   22 1
    52   21   52 1
    53   21   53 1
    54   22   54 1
    55   22   55 1
    56   23   56 1
    57   24   25 1
    58   25   26 2
    59   25   27 am
    60   27   28 1
@<TRIPOS>MOLECULE
CHEMBL182127
   68    70     0     0     0
SMALL
USER_CHARGES

@<TRIPOS>ATOM
      1 C1         -0.9777    0.3159   -0.7829 C.ar      1 <0>        -0.1480
      2 C2          0.1081    1.1718   -0.7818 C.ar      1 <0>        -0.0765
      3 C3          1.3902    0.6628   -0.7076 C.ar      1 <0>        -0.1448
      4 C4          1.5877   -0.7084   -0.6336 C.ar      1 <0>         0.1172
      5 C5          0.4965   -1.5650   -0.6344 C.ar      1 <0>        -0.2096
      6 C6         -0.7836   -1.0511   -0.7093 C.ar      1 <0>        -0.0799
      7 O1          2.8481   -1.2116   -0.5610 O.3       1 <0>        -0.3021
      8 C7          2.9759   -2.6329   -0.4873 C.3       1 <0>         0.0308
      9 C8          4.4571   -3.0086   -0.4124 C.3       1 <0>         0.0873
     10 H1          4.9869   -2.5678   -1.2569 H         1 <0>         0.1349
     11 C9          4.6001   -4.5312   -0.4592 C.3       1 <0>        -0.0477
     12 N1          6.0224   -4.8919   -0.3872 N.4       1 <0>        -0.5002
     13 C10         6.1597   -6.3537   -0.4322 C.3       1 <0>         0.0350
     14 H2          5.6580   -6.7387   -1.3200 H         1 <0>         0.1515
     15 C11         7.6430   -6.7253   -0.4830 C.3       1 <0>        -0.0884
     16 C12         8.2412   -6.2289   -1.7740 C.ar      1 <0>        -0.1523
     17 C13         8.2317   -7.0383   -2.8951 C.ar      1 <0>        -0.0815
     18 C14         8.7792   -6.5863   -4.0797 C.ar      1 <0>        -0.1117
     19 C15         9.3397   -5.3174   -4.1442 C.ar      1 <0>         0.1910
     20 C16         9.3477   -4.5069   -3.0166 C.ar      1 <0>        -0.1414
     21 C17         8.7935   -4.9627   -1.8365 C.ar      1 <0>        -0.1161
     22 N2          9.8956   -4.8565   -5.3430 N.am      1 <0>        -0.6907
     23 C18         9.3649   -5.2368   -6.5220 C.2       1 <0>         0.7053
     24 O2          8.3465   -5.9006   -6.5445 O.2       1 <0>        -0.5708
     25 N3          9.9631   -4.8812   -7.6763 N.am      1 <0>        -0.7325
     26 C19         9.3862   -5.2945   -8.9579 C.3       1 <0>         0.1618
     27 C20         8.3084   -4.2934   -9.3786 C.3       1 <0>        -0.1289
     28 C21         7.7059   -4.7250  -10.7171 C.3       1 <0>        -0.1178
     29 C22         8.8049   -4.7684  -11.7808 C.3       1 <0>        -0.1245
     30 C23         9.8826   -5.7695  -11.3600 C.3       1 <0>        -0.1167
     31 C24        10.4851   -5.3379  -10.0215 C.3       1 <0>        -0.1275
     32 C25         5.5235   -6.9644    0.8182 C.3       1 <0>         0.0508
     33 O3          6.2543   -6.5514    1.9746 O.3       1 <0>        -0.5747
     34 O4          5.0125   -2.5153    0.8084 O.3       1 <0>        -0.5413
     35 H3         -1.9795    0.7160   -0.8368 H         1 <0>         0.1294
     36 H4         -0.0461    2.2392   -0.8394 H         1 <0>         0.1350
     37 H5          2.2381    1.3318   -0.7075 H         1 <0>         0.1330
     38 H6          0.6477   -2.6329   -0.5773 H         1 <0>         0.1233
     39 H7         -1.6334   -1.7176   -0.7100 H         1 <0>         0.1283
     40 H8          2.4629   -2.9982    0.4024 H         1 <0>         0.0762
     41 H9          2.5310   -3.0842   -1.3742 H         1 <0>         0.0814
     42 H10         4.0704   -4.9720    0.3853 H         1 <0>         0.1395
     43 H11         4.1765   -4.9075   -1.3903 H         1 <0>         0.1468
     44 H12         6.5128   -4.4838   -1.1690 H         1 <0>         0.4285
     45 H13         8.1617   -6.2657    0.3583 H         1 <0>         0.1058
     46 H14         7.7482   -7.8088   -0.4268 H         1 <0>         0.1194
     47 H15         7.7960   -8.0252   -2.8442 H         1 <0>         0.1320
     48 H16         8.7717   -7.2191   -4.9549 H         1 <0>         0.1444
     49 H17         9.7831   -3.5197   -3.0636 H         1 <0>         0.1340
     50 H18         8.7955   -4.3312   -0.9604 H         1 <0>         0.1262
     51 H19        10.6630   -4.2634   -5.3253 H         1 <0>         0.4118
     52 H20        10.7755   -4.3516   -7.6584 H         1 <0>         0.3996
     53 H21         8.9419   -6.2844   -8.8540 H         1 <0>         0.0913
     54 H22         7.5255   -4.2625   -8.6209 H         1 <0>         0.0654
     55 H23         8.7527   -3.3035   -9.4825 H         1 <0>         0.0640
     56 H24         7.2616   -5.7149  -10.6132 H         1 <0>         0.0652
     57 H25         6.9381   -4.0118  -11.0168 H         1 <0>         0.0669
     58 H26         8.3756   -5.0759  -12.7343 H         1 <0>         0.0675
     59 H27         9.2492   -3.7785  -11.8847 H         1 <0>         0.0640
     60 H28         9.4383   -6.7594  -11.2561 H         1 <0>         0.0665
     61 H29        10.6655   -5.8004  -12.1178 H         1 <0>         0.0712
     62 H30        10.9294   -4.3480  -10.1255 H         1 <0>         0.0698
     63 H31        11.2530   -6.0511   -9.7218 H         1 <0>         0.0702
     64 H32         4.4903   -6.6273    0.9017 H         1 <0>         0.0709
     65 H33         5.5460   -8.0516    0.7432 H         1 <0>         0.0973
     66 H34         5.9061   -6.9019    2.8058 H         1 <0>         0.4090
     67 H35         4.5886   -2.8662    1.6035 H         1 <0>         0.3894
     68 H36         6.4145   -4.5435    0.4747 H         1 <0>         0.4368
@<TRIPOS>BOND
     1    1    6 ar
     2    1    2 ar
     3    1   35 1
     4    2    3 ar
     5    2   36 1
     6    3    4 ar
     7    3   37 1
     8    4    5 ar
     9    4    7 1
    10    5    6 ar
    11    5   38 1
    12    6   39 1
    13    7    8 1
    14    8    9 1
    15    8   40 1
    16    8   41 1
    17    9   10 1
    18    9   11 1
    19    9   34 1
    20   11   12 1
    21   11   42 1
    22   11   43 1
    23   12   13 1
    24   12   44 1
    25   12   68 1
    26   13   14 1
    27   13   15 1
    28   13   32 1
    29   15   16 1
    30   15   45 1
    31   15   46 1
    32   16   21 ar
    33   16   17 ar
    34   17   18 ar
    35   17   47 1
    36   18   19 ar
    37   18   48 1
    38   19   20 ar
    39   19   22 1
    40   20   21 ar
    41   20   49 1
    42   21   50 1
    43   22   23 am
    44   22   51 1
    45   23   24 2
    46   23   25 am
    47   25   26 1
    48   25   52 1
    49   26   31 1
    50   26   27 1
    51   26   53 1
    52   27   28 1
    53   27   54 1
    54   27   55 1
    55   28   29 1
    56   28   56 1
    57   28   57 1
    58   29   30 1
    59   29   58 1
    60   29   59 1
    61   30   31 1
    62   30   60 1
    63   30   61 1
    64   31   62 1
    65   31   63 1
    66   32   33 1
    67   32   64 1
    68   32   65 1
    69   33   66 1
    70   34   67 1
@<TRIPOS>MOLECULE
CHEMBL177442
   76    80     0     0     0
SMALL
USER_CHARGES

@<TRIPOS>ATOM
      1 C1         -0.4062    0.7333   -0.5050 C.3       1 <0>         0.1124
      2 N1         -0.0766   -0.6927   -0.5677 N.pl3     1 <0>        -0.6141
      3 C2          0.1936   -1.4369    0.6650 C.3       1 <0>         0.0808
      4 C3         -0.0208   -1.3325   -1.7831 C.2       1 <0>         0.5973
      5 N2         -0.2611   -0.6709   -2.8790 N.2       1 <0>        -0.7475
      6 N3          0.2895   -2.6754   -1.8421 N.pl3     1 <0>        -0.6118
      7 C4          0.3912   -3.3045   -3.0601 C.2       1 <0>         0.4714
      8 N4          0.3248   -2.7701   -4.2682 N.2       1 <0>        -0.6466
      9 C5          0.4388   -3.4876   -5.3646 C.2       1 <0>         0.5469
     10 O1          0.3762   -2.9824   -6.4742 O.2       1 <0>        -0.4435
     11 C6          0.6480   -4.9418   -5.1791 C.2       1 <0>        -0.2443
     12 C7          0.7989   -5.9242   -6.1046 C.2       1 <0>         0.0703
     13 C8          0.8170   -7.3302   -5.6858 C.ar      1 <0>        -0.1406
     14 C9          1.1502   -8.3334   -6.6056 C.ar      1 <0>        -0.0263
     15 C10         1.1657   -9.6411   -6.2111 C.ar      1 <0>        -0.1966
     16 C11         0.8505   -9.9780   -4.8971 C.ar      1 <0>         0.2316
     17 C12         0.5183   -8.9846   -3.9795 C.ar      1 <0>        -0.1919
     18 C13         0.5067   -7.6736   -4.3632 C.ar      1 <0>        -0.0367
     19 N5          0.8672  -11.3113   -4.5001 N.pl3     1 <0>        -0.6292
     20 C14         0.4816  -11.6905   -3.1340 C.3       1 <0>         0.1217
     21 C15        -0.6112  -12.7614   -3.2093 C.3       1 <0>        -0.1598
     22 C16        -0.1189  -13.9272   -4.0699 C.3       1 <0>         0.0273
     23 C17         0.1692  -13.4304   -5.4884 C.3       1 <0>        -0.1611
     24 C18         1.2649  -12.3676   -5.4407 C.3       1 <0>         0.1213
     25 N6         -1.1516  -14.9709   -4.1172 N.4       1 <0>        -0.5016
     26 C19        -0.6343  -16.1391   -4.8422 C.3       1 <0>        -0.0456
     27 C20        -1.7099  -17.2261   -4.8915 C.3       1 <0>         0.0857
     28 H1         -2.5918  -16.8417   -5.4039 H         1 <0>         0.1355
     29 C21        -1.1712  -18.4428   -5.6466 C.3       1 <0>         0.0315
     30 O2         -2.2118  -19.4110   -5.7941 O.3       1 <0>        -0.3032
     31 C22        -1.8969  -20.5609   -6.4479 C.ar      1 <0>         0.1356
     32 C23        -0.6133  -20.7565   -6.9320 C.ar      1 <0>        -0.2013
     33 C24        -0.2906  -21.9263   -7.5972 C.ar      1 <0>        -0.0664
     34 C25        -1.2441  -22.9078   -7.7846 C.ar      1 <0>        -0.1308
     35 C26        -2.5326  -22.7227   -7.3041 C.ar      1 <0>         0.1332
     36 C27        -2.8602  -21.5474   -6.6280 C.ar      1 <0>         0.0651
     37 N7         -4.2030  -21.6518   -6.2652 N.am      1 <0>        -0.6350
     38 C28        -4.6668  -22.8398   -6.6971 C.2       1 <0>         0.6837
     39 N8         -3.6848  -23.5047   -7.3345 N.am      1 <0>        -0.6388
     40 H2         -3.7636  -24.3834   -7.7378 H         1 <0>         0.4419
     41 O3         -5.8035  -23.2464   -6.5434 O.2       1 <0>        -0.5431
     42 O4         -2.0615  -17.6090   -3.5603 O.3       1 <0>        -0.5433
     43 S1          0.6527   -5.0395   -3.3933 S.3       1 <0>        -0.0179
     44 H3          0.5097    1.3210   -0.5669 H         1 <0>         0.0530
     45 H4         -1.0607    0.9919   -1.3374 H         1 <0>         0.0845
     46 H5         -0.9129    0.9482    0.4359 H         1 <0>         0.0692
     47 H6          0.1030   -0.7678    1.5206 H         1 <0>         0.0918
     48 H7         -0.5246   -2.2510    0.7627 H         1 <0>         0.0564
     49 H8          1.2034   -1.8457    0.6286 H         1 <0>         0.0572
     50 H9         -0.2283   -1.1239   -3.7361 H         1 <0>         0.3816
     51 H10         0.4360   -3.1757   -1.0241 H         1 <0>         0.4231
     52 H11         0.9056   -5.6704   -7.1490 H         1 <0>         0.1627
     53 H12         1.3941   -8.0731   -7.6250 H         1 <0>         0.1379
     54 H13         1.4224  -10.4149   -6.9193 H         1 <0>         0.1312
     55 H14         0.2742   -9.2507   -2.9616 H         1 <0>         0.1308
     56 H15         0.2539   -6.9034   -3.6495 H         1 <0>         0.1331
     57 H16         1.3483  -12.0893   -2.6070 H         1 <0>         0.0791
     58 H17         0.1007  -10.8163   -2.6059 H         1 <0>         0.1071
     59 H18        -0.8384  -13.1206   -2.2056 H         1 <0>         0.1024
     60 H19        -1.5093  -12.3340   -3.6552 H         1 <0>         0.0947
     61 H20         0.7931  -14.3384   -3.6369 H         1 <0>         0.1425
     62 H21         0.4974  -14.2657   -6.1069 H         1 <0>         0.0997
     63 H22        -0.7363  -12.9966   -5.9129 H         1 <0>         0.0952
     64 H23         1.4008  -11.9401   -6.4341 H         1 <0>         0.1073
     65 H24         2.1970  -12.8229   -5.1060 H         1 <0>         0.0782
     66 H25        -1.3998  -15.2412   -3.1773 H         1 <0>         0.4342
     67 H26        -0.3662  -15.8471   -5.8576 H         1 <0>         0.1478
     68 H27         0.2476  -16.5235   -4.3298 H         1 <0>         0.1413
     69 H28        -0.8206  -18.1334   -6.6312 H         1 <0>         0.0850
     70 H29        -0.3442  -18.8806   -5.0875 H         1 <0>         0.0803
     71 H30         0.1376  -19.9934   -6.7900 H         1 <0>         0.1353
     72 H31         0.7117  -22.0723   -7.9720 H         1 <0>         0.1419
     73 H32        -0.9871  -23.8185   -8.3051 H         1 <0>         0.1403
     74 H33        -1.3233  -17.9611   -3.0444 H         1 <0>         0.3906
     75 H34        -1.9680  -14.6150   -4.5915 H         1 <0>         0.4295
     76 H35        -4.7150  -20.9830   -5.7840 H         1 <0>         0.4383
@<TRIPOS>BOND
     1    1    2 1
     2    1   44 1
     3    1   45 1
     4    1   46 1
     5    2    3 1
     6    2    4 1
     7    3   47 1
     8    3   48 1
     9    3   49 1
    10    4    5 2
    11    4    6 1
    12    5   50 1
    13    6    7 1
    14    6   51 1
    15    7   43 1
    16    7    8 2
    17    8    9 1
    18    9   10 2
    19    9   11 1
    20   11   12 2
    21   11   43 1
    22   12   13 1
    23   12   52 1
    24   13   18 ar
    25   13   14 ar
    26   14   15 ar
    27   14   53 1
    28   15   16 ar
    29   15   54 1
    30   16   17 ar
    31   16   19 1
    32   17   18 ar
    33   17   55 1
    34   18   56 1
    35   19   24 1
    36   19   20 1
    37   20   21 1
    38   20   57 1
    39   20   58 1
    40   21   22 1
    41   21   59 1
    42   21   60 1
    43   22   23 1
    44   22   25 1
    45   22   61 1
    46   23   24 1
    47   23   62 1
    48   23   63 1
    49   24   64 1
    50   24   65 1
    51   25   26 1
    52   25   66 1
    53   25   75 1
    54   26   27 1
    55   26   67 1
    56   26   68 1
    57   27   28 1
    58   27   29 1
    59   27   42 1
    60   29   30 1
    61   29   69 1
    62   29   70 1
    63   30   31 1
    64   31   36 ar
    65   31   32 ar
    66   32   33 ar
    67   32   71 1
    68   33   34 ar
    69   33   72 1
    70   34   35 ar
    71   34   73 1
    72   35   39 1
    73   35   36 ar
    74   36   37 1
    75   37   38 am
    76   37   76 1
    77   38   39 am
    78   38   41 2
    79   39   40 1
    80   42   74 1
@<TRIPOS>MOLECULE
CHEMBL322973
   77    80     0     0     0
SMALL
USER_CHARGES

@<TRIPOS>ATOM
      1 C1         -0.0179    1.3698    0.0184 C.ar      1 <0>        -0.0561
      2 C2          1.1666    2.0799    0.0124 C.ar      1 <0>        -0.1950
      3 C3          2.3798    1.4037   -0.0065 C.ar      1 <0>         0.2378
      4 C4          2.3971    0.0147   -0.0193 C.ar      1 <0>        -0.1977
      5 C5          1.2090   -0.6892   -0.0132 C.ar      1 <0>        -0.0562
      6 C6          0.0029   -0.0129    0.0056 C.ar      1 <0>        -0.1761
      7 C7         -1.2916   -0.7844    0.0127 C.3       1 <0>        -0.0898
      8 C8         -1.7454   -1.0323   -1.4273 C.3       1 <0>        -0.0075
      9 N1         -3.0073   -1.7844   -1.4204 N.4       1 <0>        -0.5042
     10 C9         -3.4430   -2.0225   -2.8030 C.3       1 <0>        -0.0415
     11 C10        -4.7573   -2.8057   -2.7958 C.3       1 <0>         0.0856
     12 H1         -5.5193   -2.2319   -2.2684 H         1 <0>         0.1361
     13 C11        -5.2110   -3.0537   -4.2357 C.3       1 <0>         0.0289
     14 O1         -6.4945   -3.6819   -4.2292 O.3       1 <0>        -0.3011
     15 C12        -7.0454   -3.9733   -5.4378 C.ar      1 <0>         0.1089
     16 C13        -6.3610   -3.6655   -6.6042 C.ar      1 <0>        -0.1914
     17 C14        -6.9206   -3.9614   -7.8319 C.ar      1 <0>        -0.1062
     18 C15        -8.1667   -4.5668   -7.8983 C.ar      1 <0>         0.0803
     19 C16        -8.8508   -4.8754   -6.7319 C.ar      1 <0>        -0.1026
     20 C17        -8.2893   -4.5834   -5.5041 C.ar      1 <0>        -0.1260
     21 O2         -8.7180   -4.8574   -9.1069 O.3       1 <0>        -0.4958
     22 O3         -4.5619   -4.0579   -2.1356 O.3       1 <0>        -0.5433
     23 N2          3.5796    2.1187   -0.0131 N.pl3     1 <0>        -0.7362
     24 C18         4.8583    1.4039   -0.0331 C.3       1 <0>         0.1516
     25 C19         5.2564    1.0313    1.3969 C.3       1 <0>        -0.1504
     26 C20         6.5762    0.2540    1.3691 C.3       1 <0>         0.1310
     27 N3          7.5799    1.0519    0.6517 N.am      1 <0>        -0.6316
     28 C21         7.2624    1.5390   -0.6976 C.3       1 <0>         0.1164
     29 C22         5.9349    2.3019   -0.6466 C.3       1 <0>        -0.1436
     30 C23         8.7692    1.3319    1.2207 C.2       1 <0>         0.7086
     31 O4          8.9841    1.0057    2.3721 O.2       1 <0>        -0.5818
     32 N4          9.7202    1.9736    0.5134 N.am      1 <0>        -0.7426
     33 C24        11.0494    2.1814    1.0932 C.3       1 <0>         0.1801
     34 C25        11.9185    2.9173    0.1064 C.ar      1 <0>        -0.1253
     35 C26        12.6760    2.2101   -0.8086 C.ar      1 <0>        -0.0693
     36 C27        13.4731    2.8839   -1.7144 C.ar      1 <0>        -0.1554
     37 C28        13.5129    4.2679   -1.7053 C.ar      1 <0>         0.1106
     38 C29        12.7538    4.9752   -0.7884 C.ar      1 <0>        -0.1555
     39 C30        11.9534    4.2993    0.1130 C.ar      1 <0>        -0.0695
     40 F1         14.2921    4.9277   -2.5900 F         1 <0>        -0.1353
     41 H2         -0.9615    1.8948    0.0376 H         1 <0>         0.1216
     42 H3          1.1496    3.1597    0.0220 H         1 <0>         0.1247
     43 H4          3.3387   -0.5141   -0.0344 H         1 <0>         0.1268
     44 H5          1.2217   -1.7691   -0.0231 H         1 <0>         0.1214
     45 H6         -1.1426   -1.7395    0.5162 H         1 <0>         0.0916
     46 H7         -2.0536   -0.2106    0.5400 H         1 <0>         0.0914
     47 H8         -1.8944   -0.0772   -1.9309 H         1 <0>         0.1326
     48 H9         -0.9833   -1.6061   -1.9547 H         1 <0>         0.1320
     49 H10        -2.8693   -2.6685   -0.9543 H         1 <0>         0.4329
     50 H11        -3.5920   -1.0673   -3.3065 H         1 <0>         0.1465
     51 H12        -2.6809   -2.5963   -3.3304 H         1 <0>         0.1392
     52 H13        -5.2744   -2.1032   -4.7655 H         1 <0>         0.0819
     53 H14        -4.4919   -3.7017   -4.7368 H         1 <0>         0.0767
     54 H15        -5.3907   -3.1941   -6.5526 H         1 <0>         0.1284
     55 H16        -6.3879   -3.7211   -8.7402 H         1 <0>         0.1352
     56 H17        -9.8212   -5.3465   -6.7835 H         1 <0>         0.1417
     57 H18        -8.8202   -4.8271   -4.5957 H         1 <0>         0.1388
     58 H19        -8.4922   -5.7362   -9.4412 H         1 <0>         0.3939
     59 H20        -3.8957   -4.6221   -2.5515 H         1 <0>         0.3899
     60 H21         3.5663    3.0886   -0.0045 H         1 <0>         0.4033
     61 H22         4.7582    0.4973   -0.6298 H         1 <0>         0.0838
     62 H23         5.3810    1.9386    1.9880 H         1 <0>         0.0735
     63 H24         4.4781    0.4110    1.8413 H         1 <0>         0.0796
     64 H25         6.9148    0.0723    2.3891 H         1 <0>         0.1008
     65 H26         6.4298   -0.6963    0.8557 H         1 <0>         0.0676
     66 H27         8.0537    2.2052   -1.0412 H         1 <0>         0.0837
     67 H28         7.1719    0.6935   -1.3795 H         1 <0>         0.0750
     68 H29         5.6395    2.5860   -1.6567 H         1 <0>         0.0846
     69 H30         6.0531    3.1973   -0.0363 H         1 <0>         0.0762
     70 H31         9.5246    2.2978   -0.3797 H         1 <0>         0.3962
     71 H32        10.9594    2.7689    2.0069 H         1 <0>         0.0798
     72 H33        11.4997    1.2161    1.3248 H         1 <0>         0.0790
     73 H34        12.6451    1.1305   -0.8153 H         1 <0>         0.1357
     74 H35        14.0651    2.3312   -2.4289 H         1 <0>         0.1396
     75 H36        12.7842    6.0547   -0.7802 H         1 <0>         0.1394
     76 H37        11.3578    4.8509    0.8253 H         1 <0>         0.1353
     77 H38        -3.7127   -1.2532   -0.9322 H         1 <0>         0.4306
@<TRIPOS>BOND
     1    1    6 ar
     2    1    2 ar
     3    1   41 1
     4    2    3 ar
     5    2   42 1
     6    3    4 ar
     7    3   23 1
     8    4    5 ar
     9    4   43 1
    10    5    6 ar
    11    5   44 1
    12    6    7 1
    13    7    8 1
    14    7   45 1
    15    7   46 1
    16    8    9 1
    17    8   47 1
    18    8   48 1
    19    9   10 1
    20    9   49 1
    21    9   77 1
    22   10   11 1
    23   10   50 1
    24   10   51 1
    25   11   12 1
    26   11   13 1
    27   11   22 1
    28   13   14 1
    29   13   52 1
    30   13   53 1
    31   14   15 1
    32   15   20 ar
    33   15   16 ar
    34   16   17 ar
    35   16   54 1
    36   17   18 ar
    37   17   55 1
    38   18   19 ar
    39   18   21 1
    40   19   20 ar
    41   19   56 1
    42   20   57 1
    43   21   58 1
    44   22   59 1
    45   23   24 1
    46   23   60 1
    47   24   29 1
    48   24   25 1
    49   24   61 1
    50   25   26 1
    51   25   62 1
    52   25   63 1
    53   26   27 1
    54   26   64 1
    55   26   65 1
    56   27   28 1
    57   27   30 am
    58   28   29 1
    59   28   66 1
    60   28   67 1
    61   29   68 1
    62   29   69 1
    63   30   31 2
    64   30   32 am
    65   32   33 1
    66   32   70 1
    67   33   34 1
    68   33   71 1
    69   33   72 1
    70   34   39 ar
    71   34   35 ar
    72   35   36 ar
    73   35   73 1
    74   36   37 ar
    75   36   74 1
    76   37   38 ar
    77   37   40 1
    78   38   39 ar
    79   38   75 1
    80   39   76 1
@<TRIPOS>MOLECULE
CHEMBL419787
   67    70     0     0     0
SMALL
USER_CHARGES

@<TRIPOS>ATOM
      1 C1          1.2220   -2.0726   -6.0007 C.ar      1 <0>        -0.1243
      2 C2          0.0501   -2.4993   -5.4035 C.ar      1 <0>        -0.1073
      3 C3          0.0462   -2.8672   -4.0721 C.ar      1 <0>        -0.1356
      4 C4          1.2196   -2.8084   -3.3338 C.ar      1 <0>         0.0983
      5 C5          2.3943   -2.3798   -3.9355 C.ar      1 <0>        -0.1343
      6 C6          2.3927   -2.0130   -5.2673 C.ar      1 <0>        -0.0993
      7 O1          1.2184   -3.1694   -2.0239 O.3       1 <0>        -0.2897
      8 C7          1.7585   -4.3711   -1.6930 C.ar      1 <0>         0.1161
      9 C8          0.9271   -5.4682   -1.4566 C.ar      1 <0>        -0.2012
     10 C9          1.4657   -6.7019   -1.1182 C.ar      1 <0>        -0.0616
     11 C10         2.8162   -6.8614   -1.0108 C.ar      1 <0>        -0.1912
     12 C11         3.6784   -5.7617   -1.2463 C.ar      1 <0>         0.2271
     13 C12         3.1264   -4.5078   -1.5964 C.ar      1 <0>        -0.1796
     14 N1          5.0005   -5.9094   -1.1429 N.2       1 <0>        -0.6412
     15 C13         5.5240   -6.4803   -0.0596 C.2       1 <0>         0.5274
     16 C14         6.8697   -6.8400   -0.0433 C.2       1 <0>        -0.3541
     17 N2          7.5079   -7.0802    1.1625 N.pl3     1 <0>         0.1584
     18 O2          6.8676   -7.1236    2.1872 O.2       1 <0>        -0.3593
     19 O3          8.7050   -7.2464    1.1903 O.3       1 <0>        -0.3303
     20 N3          4.7321   -6.7159    1.0484 N.pl3     1 <0>        -0.6814
     21 C15         3.5615   -5.9819    1.2378 C.ar      1 <0>         0.2021
     22 C16         3.4992   -4.6528    0.8340 C.ar      1 <0>        -0.1371
     23 C17         2.3386   -3.9295    1.0232 C.ar      1 <0>        -0.0601
     24 C18         1.2386   -4.5253    1.6136 C.ar      1 <0>        -0.1454
     25 C19         1.2967   -5.8473    2.0166 C.ar      1 <0>        -0.0779
     26 C20         2.4519   -6.5789    1.8256 C.ar      1 <0>        -0.1581
     27 C21        -0.0261   -3.7320    1.8186 C.3       1 <0>        -0.0828
     28 C22        -0.9256   -3.8795    0.5898 C.3       1 <0>        -0.0187
     29 N4         -2.1585   -3.1062    0.7897 N.4       1 <0>        -0.5041
     30 C23        -3.0221   -3.2478   -0.3902 C.3       1 <0>        -0.0428
     31 C24        -4.3062   -2.4424   -0.1820 C.3       1 <0>         0.1412
     32 H1         -4.0564   -1.3911   -0.0386 H         1 <0>         0.1333
     33 C25        -5.1921   -2.5877   -1.3923 C.ar      1 <0>        -0.1949
     34 C26        -5.1542   -1.6438   -2.4076 C.ar      1 <0>        -0.0541
     35 C27        -5.9869   -1.8183   -3.5021 C.ar      1 <0>        -0.1645
     36 C28        -6.8214   -2.9194   -3.5448 C.ar      1 <0>         0.1190
     37 N5         -6.8312   -3.7968   -2.5606 N.ar      1 <0>        -0.4757
     38 C29        -6.0484   -3.6661   -1.5072 C.ar      1 <0>         0.1168
     39 O4         -4.9928   -2.9306    0.9723 O.3       1 <0>        -0.5466
     40 H2          1.2239   -1.7896   -7.0429 H         1 <0>         0.1264
     41 H3         -0.8630   -2.5445   -5.9785 H         1 <0>         0.1258
     42 H4         -0.8695   -3.2001   -3.6061 H         1 <0>         0.1182
     43 H5          3.3089   -2.3328   -3.3631 H         1 <0>         0.1303
     44 H6          3.3067   -1.6797   -5.7362 H         1 <0>         0.1292
     45 H7         -0.1440   -5.3557   -1.5375 H         1 <0>         0.1010
     46 H8          0.8108   -7.5416   -0.9382 H         1 <0>         0.1100
     47 H9          3.2277   -7.8242   -0.7464 H         1 <0>         0.1106
     48 H10         3.7719   -3.6622   -1.7826 H         1 <0>         0.1185
     49 H11         7.4155   -6.9316   -0.9707 H         1 <0>         0.1642
     50 H12         4.9906   -7.3917    1.6944 H         1 <0>         0.4220
     51 H13         4.3577   -4.1868    0.3734 H         1 <0>         0.1256
     52 H14         2.2896   -2.8970    0.7102 H         1 <0>         0.1166
     53 H15         0.4360   -6.3090    2.4775 H         1 <0>         0.1150
     54 H16         2.4950   -7.6123    2.1364 H         1 <0>         0.1206
     55 H17        -0.5499   -4.1044    2.6991 H         1 <0>         0.0866
     56 H18         0.2236   -2.6807    1.9620 H         1 <0>         0.0875
     57 H19        -0.4019   -3.5071   -0.2906 H         1 <0>         0.1448
     58 H20        -1.1753   -4.9308    0.4464 H         1 <0>         0.1314
     59 H21        -2.6433   -3.4509    1.6047 H         1 <0>         0.4281
     60 H22        -2.4983   -2.8754   -1.2706 H         1 <0>         0.1442
     61 H23        -3.2718   -4.2991   -0.5335 H         1 <0>         0.1360
     62 H24        -4.4919   -0.7929   -2.3468 H         1 <0>         0.1413
     63 H25        -5.9840   -1.1027   -4.3110 H         1 <0>         0.1455
     64 H26        -7.4732   -3.0625   -4.3939 H         1 <0>         0.1649
     65 H27        -6.0804   -4.4081   -0.7231 H         1 <0>         0.1529
     66 H28        -5.2464   -3.8619    0.9145 H         1 <0>         0.3888
     67 H29        -1.9273   -2.1330    0.9224 H         1 <0>         0.4275
@<TRIPOS>BOND
     1    1    6 ar
     2    1    2 ar
     3    1   40 1
     4    2    3 ar
     5    2   41 1
     6    3    4 ar
     7    3   42 1
     8    4    5 ar
     9    4    7 1
    10    5    6 ar
    11    5   43 1
    12    6   44 1
    13    7    8 1
    14    8   13 ar
    15    8    9 ar
    16    9   10 ar
    17    9   45 1
    18   10   11 ar
    19   10   46 1
    20   11   12 ar
    21   11   47 1
    22   12   13 ar
    23   12   14 1
    24   13   48 1
    25   14   15 2
    26   15   20 1
    27   15   16 1
    28   16   17 1
    29   16   49 1
    30   17   18 2
    31   17   19 1
    32   20   21 1
    33   20   50 1
    34   21   26 ar
    35   21   22 ar
    36   22   23 ar
    37   22   51 1
    38   23   24 ar
    39   23   52 1
    40   24   25 ar
    41   24   27 1
    42   25   26 ar
    43   25   53 1
    44   26   54 1
    45   27   28 1
    46   27   55 1
    47   27   56 1
    48   28   29 1
    49   28   57 1
    50   28   58 1
    51   29   30 1
    52   29   59 1
    53   29   67 1
    54   30   31 1
    55   30   60 1
    56   30   61 1
    57   31   32 1
    58   31   33 1
    59   31   39 1
    60   33   38 ar
    61   33   34 ar
    62   34   35 ar
    63   34   62 1
    64   35   36 ar
    65   35   63 1
    66   36   37 ar
    67   36   64 1
    68   37   38 ar
    69   38   65 1
    70   39   66 1
@<TRIPOS>MOLECULE
CHEMBL419787__1
   68    71     0     0     0
SMALL
USER_CHARGES

@<TRIPOS>ATOM
      1 C1          8.0353  -12.6603    4.7923 C.ar      1 <0>        -0.1477
      2 C2          6.8883  -12.5653    5.5586 C.ar      1 <0>        -0.0819
      3 C3          6.3520  -11.3263    5.8509 C.ar      1 <0>        -0.1454
      4 C4          6.9654  -10.1764    5.3747 C.ar      1 <0>         0.1145
      5 C5          8.1164  -10.2745    4.6059 C.ar      1 <0>        -0.1940
      6 C6          8.6485  -11.5160    4.3165 C.ar      1 <0>        -0.0801
      7 O1          6.4397   -8.9564    5.6603 O.3       1 <0>        -0.2626
      8 C7          7.0942   -7.8567    5.2033 C.ar      1 <0>         0.1024
      9 C8          7.9799   -7.1812    6.0330 C.ar      1 <0>        -0.1259
     10 C9          8.6484   -6.0621    5.5733 C.ar      1 <0>        -0.0830
     11 C10         8.4401   -5.6086    4.2864 C.ar      1 <0>        -0.0955
     12 C11         7.5520   -6.2810    3.4455 C.ar      1 <0>         0.1264
     13 C12         6.8823   -7.4134    3.9087 C.ar      1 <0>        -0.1712
     14 N1          7.3428   -5.8329    2.1662 N.2       1 <0>        -0.5179
     15 C13         6.1368   -5.5484    1.7649 C.2       1 <0>         0.4137
     16 C14         5.9068   -4.3843    0.8360 C.3       1 <0>         0.0133
     17 N2          7.1973   -3.8431    0.4024 N.pl3     1 <0>        -0.0126
     18 O2          8.0794   -4.5916    0.0514 O.2       1 <0>        -0.0946
     19 O3          7.3800   -2.6480    0.3955 O.3       1 <0>        -0.1671
     20 N3          5.0781   -6.3070    2.1870 N.pl3     1 <0>        -0.6834
     21 C15         3.8159   -5.7244    2.3353 C.ar      1 <0>         0.1735
     22 C16         3.4154   -4.7045    1.4816 C.ar      1 <0>        -0.1921
     23 C17         2.1677   -4.1315    1.6306 C.ar      1 <0>        -0.0669
     24 C18         1.3174   -4.5721    2.6282 C.ar      1 <0>        -0.1300
     25 C19         1.7132   -5.5870    3.4801 C.ar      1 <0>        -0.0690
     26 C20         2.9573   -6.1682    3.3330 C.ar      1 <0>        -0.1411
     27 C21        -0.0434   -3.9445    2.7878 C.3       1 <0>        -0.0988
     28 C22        -1.0801   -4.7747    2.0284 C.3       1 <0>        -0.0077
     29 N4         -2.4066   -4.1630    2.1839 N.4       1 <0>        -0.5056
     30 C23        -3.4020   -4.9601    1.4548 C.3       1 <0>        -0.0427
     31 C24        -4.7836   -4.3229    1.6167 C.3       1 <0>         0.1418
     32 H1         -4.7655   -3.3094    1.2160 H         1 <0>         0.1341
     33 C25        -5.8047   -5.1407    0.8688 C.ar      1 <0>        -0.2012
     34 C26        -6.1626   -4.8021   -0.4275 C.ar      1 <0>        -0.0548
     35 C27        -7.1062   -5.5830   -1.0768 C.ar      1 <0>        -0.1639
     36 C28        -7.6551   -6.6654   -0.4153 C.ar      1 <0>         0.1229
     37 N5         -7.2912   -6.9576    0.8179 N.ar      1 <0>        -0.4747
     38 C29        -6.3922   -6.2408    1.4639 C.ar      1 <0>         0.1173
     39 O4         -5.1293   -4.2811    3.0027 O.3       1 <0>        -0.5459
     40 H2          8.4555  -13.6298    4.5687 H         1 <0>         0.1285
     41 H3          6.4110  -13.4607    5.9288 H         1 <0>         0.1335
     42 H4          5.4559  -11.2527    6.4492 H         1 <0>         0.1317
     43 H5          8.5955   -9.3810    4.2337 H         1 <0>         0.1268
     44 H6          9.5445  -11.5929    3.7184 H         1 <0>         0.1285
     45 H7          8.1465   -7.5314    7.0410 H         1 <0>         0.1380
     46 H8          9.3356   -5.5407    6.2231 H         1 <0>         0.1437
     47 H9          8.9638   -4.7337    3.9305 H         1 <0>         0.1393
     48 H10         6.1975   -7.9406    3.2609 H         1 <0>         0.1193
     49 H11         5.3426   -4.7198   -0.0342 H         1 <0>         0.1609
     50 H12         5.3444   -3.6094    1.3569 H         1 <0>         0.1674
     51 H13         5.2037   -7.2486    2.3832 H         1 <0>         0.4262
     52 H14         4.0791   -4.3597    0.7025 H         1 <0>         0.1428
     53 H15         1.8558   -3.3382    0.9674 H         1 <0>         0.1344
     54 H16         1.0471   -5.9283    4.2587 H         1 <0>         0.1328
     55 H17         3.2640   -6.9641    3.9956 H         1 <0>         0.1355
     56 H18        -0.3071   -3.9125    3.8449 H         1 <0>         0.0983
     57 H19        -0.0253   -2.9310    2.3870 H         1 <0>         0.0981
     58 H20        -0.8164   -4.8067    0.9712 H         1 <0>         0.1339
     59 H21        -1.0982   -5.7882    2.4291 H         1 <0>         0.1332
     60 H22        -2.6507   -4.1334    3.1625 H         1 <0>         0.4330
     61 H23        -3.1383   -4.9921    0.3976 H         1 <0>         0.1447
     62 H24        -3.4201   -5.9736    1.8555 H         1 <0>         0.1377
     63 H25        -5.7170   -3.9501   -0.9194 H         1 <0>         0.1411
     64 H26        -7.4088   -5.3483   -2.0867 H         1 <0>         0.1475
     65 H27        -8.3909   -7.2788   -0.9142 H         1 <0>         0.1675
     66 H28        -6.1154   -6.5140    2.4714 H         1 <0>         0.1528
     67 H29        -5.1644   -5.1499    3.4257 H         1 <0>         0.3900
     68 H30        -2.3899   -3.2248    1.8129 H         1 <0>         0.4301
@<TRIPOS>BOND
     1    1    6 ar
     2    1    2 ar
     3    1   40 1
     4    2    3 ar
     5    2   41 1
     6    3    4 ar
     7    3   42 1
     8    4    5 ar
     9    4    7 1
    10    5    6 ar
    11    5   43 1
    12    6   44 1
    13    7    8 1
    14    8   13 ar
    15    8    9 ar
    16    9   10 ar
    17    9   45 1
    18   10   11 ar
    19   10   46 1
    20   11   12 ar
    21   11   47 1
    22   12   13 ar
    23   12   14 1
    24   13   48 1
    25   14   15 2
    26   15   20 1
    27   15   16 1
    28   16   17 1
    29   16   50 1
    30   16   49 1
    31   17   18 2
    32   17   19 1
    33   20   21 1
    34   20   51 1
    35   21   26 ar
    36   21   22 ar
    37   22   23 ar
    38   22   52 1
    39   23   24 ar
    40   23   53 1
    41   24   25 ar
    42   24   27 1
    43   25   26 ar
    44   25   54 1
    45   26   55 1
    46   27   28 1
    47   27   56 1
    48   27   57 1
    49   28   29 1
    50   28   58 1
    51   28   59 1
    52   29   30 1
    53   29   60 1
    54   29   68 1
    55   30   31 1
    56   30   61 1
    57   30   62 1
    58   31   32 1
    59   31   33 1
    60   31   39 1
    61   33   38 ar
    62   33   34 ar
    63   34   35 ar
    64   34   63 1
    65   35   36 ar
    66   35   64 1
    67   36   37 ar
    68   36   65 1
    69   37   38 ar
    70   38   66 1
    71   39   67 1
@<TRIPOS>MOLECULE
CHEMBL419787__2
   67    70     0     0     0
SMALL
USER_CHARGES

@<TRIPOS>ATOM
      1 C1         -0.4038   -2.0239   -0.8555 C.ar      1 <0>        -0.1586
      2 C2          0.2629   -3.1614   -0.4390 C.ar      1 <0>        -0.0815
      3 C3          1.4186   -3.5604   -1.0819 C.ar      1 <0>        -0.1906
      4 C4          1.9104   -2.8186   -2.1465 C.ar      1 <0>         0.1276
      5 C5          1.2394   -1.6774   -2.5624 C.ar      1 <0>        -0.1532
      6 C6          0.0841   -1.2828   -1.9160 C.ar      1 <0>        -0.0865
      7 O1          3.0473   -3.2086   -2.7802 O.3       1 <0>        -0.2617
      8 C7          3.6684   -4.3340   -2.3408 C.ar      1 <0>         0.0976
      9 C8          3.2013   -5.5890   -2.7380 C.ar      1 <0>        -0.1805
     10 C9          3.8268   -6.7468   -2.2967 C.ar      1 <0>        -0.0833
     11 C10         4.9077   -6.6764   -1.4675 C.ar      1 <0>        -0.1611
     12 C11         5.3984   -5.4137   -1.0520 C.ar      1 <0>         0.2109
     13 C12         4.7621   -4.2360   -1.5081 C.ar      1 <0>        -0.1615
     14 N1          6.4549   -5.3364   -0.2407 N.2       1 <0>        -0.6468
     15 C13         6.4414   -5.9671    0.9320 C.2       1 <0>         0.5356
     16 C14         5.2813   -6.6037    1.3672 C.2       1 <0>        -0.4189
     17 N2          5.3660   -7.6823    2.2323 N.pl3     1 <0>         0.1633
     18 O2          6.4219   -8.2499    2.3892 O.2       1 <0>        -0.3709
     19 O3          4.3841   -8.0561    2.8304 O.3       1 <0>        -0.3434
     20 N3          7.5785   -5.9899    1.7175 N.pl3     1 <0>        -0.6500
     21 C15         8.7069   -5.2668    1.3321 C.ar      1 <0>         0.2067
     22 C16         8.5640   -4.0572    0.6614 C.ar      1 <0>        -0.1153
     23 C17         9.6835   -3.3442    0.2815 C.ar      1 <0>        -0.0884
     24 C18        10.9462   -3.8318    0.5672 C.ar      1 <0>        -0.1569
     25 C19        11.0924   -5.0348    1.2342 C.ar      1 <0>        -0.0858
     26 C20         9.9776   -5.7507    1.6225 C.ar      1 <0>        -0.1623
     27 C21        12.1656   -3.0506    0.1502 C.3       1 <0>        -0.0878
     28 C22        12.5624   -2.0878    1.2711 C.3       1 <0>        -0.0085
     29 N4         13.7510   -1.3263    0.8646 N.4       1 <0>        -0.5053
     30 C23        14.1320   -0.4019    1.9409 C.3       1 <0>        -0.0425
     31 C24        15.3700    0.3912    1.5175 C.3       1 <0>         0.1408
     32 H1         15.1468    0.9581    0.6137 H         1 <0>         0.1335
     33 C25        15.7608    1.3396    2.6216 C.ar      1 <0>        -0.1972
     34 C26        15.3182    2.6537    2.6079 C.ar      1 <0>        -0.0550
     35 C27        15.7028    3.4903    3.6442 C.ar      1 <0>        -0.1648
     36 C28        16.5089    2.9903    4.6496 C.ar      1 <0>         0.1200
     37 N5         16.9113    1.7348    4.6299 N.ar      1 <0>        -0.4757
     38 C29        16.5601    0.9091    3.6634 C.ar      1 <0>         0.1170
     39 O4         16.4483   -0.5104    1.2601 O.3       1 <0>        -0.5464
     40 H2         -1.3097   -1.7161   -0.3544 H         1 <0>         0.1225
     41 H3         -0.1200   -3.7382    0.3898 H         1 <0>         0.1251
     42 H4          1.9392   -4.4488   -0.7559 H         1 <0>         0.1317
     43 H5          1.6202   -1.0980   -3.3905 H         1 <0>         0.1288
     44 H6         -0.4387   -0.3949   -2.2396 H         1 <0>         0.1277
     45 H7          2.3460   -5.6590   -3.3937 H         1 <0>         0.1185
     46 H8          3.4549   -7.7105   -2.6119 H         1 <0>         0.1194
     47 H9          5.3886   -7.5819   -1.1279 H         1 <0>         0.1176
     48 H10         5.1280   -3.2669   -1.2026 H         1 <0>         0.1219
     49 H11         4.3158   -6.2565    1.0301 H         1 <0>         0.1559
     50 H12         7.5915   -6.5090    2.5369 H         1 <0>         0.4240
     51 H13         7.5786   -3.6761    0.4377 H         1 <0>         0.1486
     52 H14         9.5734   -2.4048   -0.2398 H         1 <0>         0.1179
     53 H15        12.0798   -5.4124    1.4552 H         1 <0>         0.1186
     54 H16        10.0925   -6.6877    2.1472 H         1 <0>         0.1274
     55 H17        12.9881   -3.7383   -0.0462 H         1 <0>         0.0895
     56 H18        11.9424   -2.4837   -0.7537 H         1 <0>         0.0901
     57 H19        11.7399   -1.4000    1.4674 H         1 <0>         0.1330
     58 H20        12.7856   -2.6547    2.1749 H         1 <0>         0.1324
     59 H21        14.5124   -1.9629    0.6829 H         1 <0>         0.4309
     60 H22        13.3095    0.2859    2.1372 H         1 <0>         0.1440
     61 H23        14.3552   -0.9688    2.8447 H         1 <0>         0.1369
     62 H24        14.6892    3.0169    1.8086 H         1 <0>         0.1414
     63 H25        15.3770    4.5197    3.6656 H         1 <0>         0.1462
     64 H26        16.8129    3.6356    5.4606 H         1 <0>         0.1659
     65 H27        16.9049   -0.1142    3.6840 H         1 <0>         0.1535
     66 H28        16.7013   -1.0489    2.0225 H         1 <0>         0.3896
     67 H29        13.5444   -0.8015    0.0280 H         1 <0>         0.4284
@<TRIPOS>BOND
     1    1    6 ar
     2    1    2 ar
     3    1   40 1
     4    2    3 ar
     5    2   41 1
     6    3    4 ar
     7    3   42 1
     8    4    5 ar
     9    4    7 1
    10    5    6 ar
    11    5   43 1
    12    6   44 1
    13    7    8 1
    14    8   13 ar
    15    8    9 ar
    16    9   10 ar
    17    9   45 1
    18   10   11 ar
    19   10   46 1
    20   11   12 ar
    21   11   47 1
    22   12   13 ar
    23   12   14 1
    24   13   48 1
    25   14   15 2
    26   15   20 1
    27   15   16 1
    28   16   17 1
    29   16   49 1
    30   17   18 2
    31   17   19 1
    32   20   21 1
    33   20   50 1
    34   21   26 ar
    35   21   22 ar
    36   22   23 ar
    37   22   51 1
    38   23   24 ar
    39   23   52 1
    40   24   25 ar
    41   24   27 1
    42   25   26 ar
    43   25   53 1
    44   26   54 1
    45   27   28 1
    46   27   55 1
    47   27   56 1
    48   28   29 1
    49   28   57 1
    50   28   58 1
    51   29   30 1
    52   29   59 1
    53   29   67 1
    54   30   31 1
    55   30   60 1
    56   30   61 1
    57   31   32 1
    58   31   33 1
    59   31   39 1
    60   33   38 ar
    61   33   34 ar
    62   34   35 ar
    63   34   62 1
    64   35   36 ar
    65   35   63 1
    66   36   37 ar
    67   36   64 1
    68   37   38 ar
    69   38   65 1
    70   39   66 1
@<TRIPOS>MOLECULE
CHEMBL419787__3
   68    71     0     0     0
SMALL
USER_CHARGES

@<TRIPOS>ATOM
      1 C1          4.0734   -0.7261   -5.4973 C.ar      1 <0>        -0.1495
      2 C2          3.2379    0.0125   -4.6797 C.ar      1 <0>        -0.0809
      3 C3          2.7006   -0.5588   -3.5425 C.ar      1 <0>        -0.1421
      4 C4          2.9999   -1.8750   -3.2211 C.ar      1 <0>         0.1177
      5 C5          3.8386   -2.6139   -4.0432 C.ar      1 <0>        -0.1953
      6 C6          4.3733   -2.0378   -5.1792 C.ar      1 <0>        -0.0830
      7 O1          2.4730   -2.4392   -2.1028 O.3       1 <0>        -0.2578
      8 C7          2.7165   -3.7570   -1.8777 C.ar      1 <0>         0.1100
      9 C8          1.7240   -4.6977   -2.1209 C.ar      1 <0>        -0.1264
     10 C9          1.9662   -6.0395   -1.8937 C.ar      1 <0>        -0.0763
     11 C10         3.1962   -6.4532   -1.4237 C.ar      1 <0>        -0.1687
     12 C11         4.1996   -5.5151   -1.1765 C.ar      1 <0>         0.1122
     13 C12         3.9558   -4.1621   -1.4115 C.ar      1 <0>        -0.1281
     14 N1          5.4230   -5.9230   -0.7093 N.2       1 <0>        -0.5196
     15 C13         5.4979   -6.6668    0.3572 C.2       1 <0>         0.4120
     16 C14         4.2499   -6.9967    1.1349 C.3       1 <0>        -0.0238
     17 N2          4.6143   -7.6989    2.3680 N.pl3     1 <0>        -0.0194
     18 O2          5.4757   -7.2495    3.0875 O.2       1 <0>        -0.1607
     19 O3          4.0536   -8.7277    2.6660 O.3       1 <0>        -0.1199
     20 N3          6.7103   -7.1491    0.7716 N.pl3     1 <0>        -0.6412
     21 C15         7.8810   -6.7506    0.1197 C.ar      1 <0>         0.1766
     22 C16         7.9898   -5.4632   -0.3905 C.ar      1 <0>        -0.1061
     23 C17         9.1479   -5.0726   -1.0336 C.ar      1 <0>        -0.0870
     24 C18        10.1985   -5.9615   -1.1699 C.ar      1 <0>        -0.1253
     25 C19        10.0932   -7.2440   -0.6635 C.ar      1 <0>        -0.0847
     26 C20         8.9402   -7.6393   -0.0143 C.ar      1 <0>        -0.1409
     27 C21        11.4606   -5.5317   -1.8723 C.3       1 <0>        -0.0973
     28 C22        12.4332   -4.9344   -0.8533 C.3       1 <0>        -0.0076
     29 N4         13.6635   -4.5155   -1.5380 N.4       1 <0>        -0.5055
     30 C23        14.5973   -3.9419   -0.5597 C.3       1 <0>        -0.0427
     31 C24        15.8787   -3.5056   -1.2727 C.3       1 <0>         0.1416
     32 H1         15.6377   -2.7568   -2.0272 H         1 <0>         0.1337
     33 C25        16.8366   -2.9172   -0.2691 C.ar      1 <0>        -0.2005
     34 C26        16.8782   -1.5474   -0.0576 C.ar      1 <0>        -0.0549
     35 C27        17.7752   -1.0507    0.8754 C.ar      1 <0>        -0.1641
     36 C28        18.5926   -1.9312    1.5590 C.ar      1 <0>         0.1226
     37 N5         18.5260   -3.2283    1.3316 N.ar      1 <0>        -0.4748
     38 C29        17.6806   -3.7364    0.4561 C.ar      1 <0>         0.1173
     39 O4         16.4832   -4.6377   -1.9012 O.3       1 <0>        -0.5460
     40 H2          4.4888   -0.2789   -6.3883 H         1 <0>         0.1270
     41 H3          3.0056    1.0370   -4.9301 H         1 <0>         0.1341
     42 H4          2.0484    0.0186   -2.9041 H         1 <0>         0.1344
     43 H5          4.0734   -3.6385   -3.7951 H         1 <0>         0.1275
     44 H6          5.0258   -2.6126   -5.8196 H         1 <0>         0.1254
     45 H7          0.7595   -4.3796   -2.4884 H         1 <0>         0.1399
     46 H8          1.1905   -6.7664   -2.0843 H         1 <0>         0.1410
     47 H9          3.3820   -7.5023   -1.2469 H         1 <0>         0.1278
     48 H10         4.7300   -3.4321   -1.2265 H         1 <0>         0.1361
     49 H11         3.7227   -6.0757    1.3835 H         1 <0>         0.1682
     50 H12         3.6035   -7.6339    0.5314 H         1 <0>         0.1678
     51 H13         6.7571   -7.7673    1.5177 H         1 <0>         0.4243
     52 H14         7.1696   -4.7686   -0.2848 H         1 <0>         0.1421
     53 H15         9.2330   -4.0719   -1.4309 H         1 <0>         0.1272
     54 H16        10.9152   -7.9360   -0.7723 H         1 <0>         0.1296
     55 H17         8.8605   -8.6395    0.3852 H         1 <0>         0.1317
     56 H18        11.9217   -6.3953   -2.3517 H         1 <0>         0.0961
     57 H19        11.2196   -4.7829   -2.6268 H         1 <0>         0.0957
     58 H20        11.9721   -4.0709   -0.3739 H         1 <0>         0.1337
     59 H21        12.6742   -5.6832   -0.0988 H         1 <0>         0.1338
     60 H22        14.0903   -5.3148   -1.9817 H         1 <0>         0.4325
     61 H23        14.1362   -3.0784   -0.0803 H         1 <0>         0.1446
     62 H24        14.8383   -4.6907    0.1949 H         1 <0>         0.1379
     63 H25        16.2274   -0.8832   -0.6069 H         1 <0>         0.1410
     64 H26        17.8349    0.0108    1.0654 H         1 <0>         0.1472
     65 H27        19.2941   -1.5523    2.2874 H         1 <0>         0.1672
     66 H28        17.6510   -4.8048    0.3007 H         1 <0>         0.1530
     67 H29        16.7246   -5.3455   -1.2882 H         1 <0>         0.3900
     68 H30        13.4404   -3.8223   -2.2364 H         1 <0>         0.4295
@<TRIPOS>BOND
     1    1    6 ar
     2    1    2 ar
     3    1   40 1
     4    2    3 ar
     5    2   41 1
     6    3    4 ar
     7    3   42 1
     8    4    5 ar
     9    4    7 1
    10    5    6 ar
    11    5   43 1
    12    6   44 1
    13    7    8 1
    14    8   13 ar
    15    8    9 ar
    16    9   10 ar
    17    9   45 1
    18   10   11 ar
    19   10   46 1
    20   11   12 ar
    21   11   47 1
    22   12   13 ar
    23   12   14 1
    24   13   48 1
    25   14   15 2
    26   15   20 1
    27   15   16 1
    28   16   17 1
    29   16   50 1
    30   16   49 1
    31   17   18 2
    32   17   19 1
    33   20   21 1
    34   20   51 1
    35   21   26 ar
    36   21   22 ar
    37   22   23 ar
    38   22   52 1
    39   23   24 ar
    40   23   53 1
    41   24   25 ar
    42   24   27 1
    43   25   26 ar
    44   25   54 1
    45   26   55 1
    46   27   28 1
    47   27   56 1
    48   27   57 1
    49   28   29 1
    50   28   58 1
    51   28   59 1
    52   29   30 1
    53   29   60 1
    54   29   68 1
    55   30   31 1
    56   30   61 1
    57   30   62 1
    58   31   32 1
    59   31   33 1
    60   31   39 1
    61   33   38 ar
    62   33   34 ar
    63   34   35 ar
    64   34   63 1
    65   35   36 ar
    66   35   64 1
    67   36   37 ar
    68   36   65 1
    69   37   38 ar
    70   38   66 1
    71   39   67 1
@<TRIPOS>MOLECULE
CHEMBL1203987
   64    66     0     0     0
SMALL
USER_CHARGES

@<TRIPOS>ATOM
      1 C1          2.9019    4.2042   -0.5105 C.ar      1 <0>        -0.1152
      2 C2          4.2289    4.0500   -0.8660 C.ar      1 <0>        -0.1165
      3 C3          4.8313    2.8098   -0.7672 C.ar      1 <0>        -0.1114
      4 C4          4.1069    1.7238   -0.3125 C.ar      1 <0>        -0.0895
      5 C5          2.7803    1.8781    0.0439 C.ar      1 <0>        -0.1116
      6 C6          2.1774    3.1180   -0.0562 C.ar      1 <0>        -0.1167
      7 C7          4.7634    0.3715   -0.2057 C.3       1 <0>        -0.0920
      8 C8          5.3846    0.2144    1.1837 C.3       1 <0>         0.1251
      9 N1          6.0228   -1.1002    1.2875 N.pl3     1 <0>        -0.6722
     10 C9          6.6392   -1.4617    2.4302 C.2       1 <0>         0.5523
     11 S1          6.6764   -0.3847    3.7604 S.2       1 <0>        -0.6041
     12 N2          7.2263   -2.6711    2.5257 N.pl3     1 <0>        -0.6416
     13 C10         7.9419   -3.0122    3.6783 C.ar      1 <0>         0.1443
     14 C11         7.4076   -2.7483    4.9327 C.ar      1 <0>        -0.0642
     15 C12         8.1164   -3.0867    6.0687 C.ar      1 <0>        -0.1026
     16 C13         9.3571   -3.6873    5.9580 C.ar      1 <0>        -0.1041
     17 C14         9.8920   -3.9514    4.7105 C.ar      1 <0>        -0.1048
     18 C15         9.1857   -3.6207    3.5706 C.ar      1 <0>        -0.1196
     19 C16        10.1282   -4.0543    7.1997 C.3       1 <0>        -0.1006
     20 C17         9.7611   -5.4770    7.6261 C.3       1 <0>        -0.0066
     21 N3         10.5128   -5.8348    8.8365 N.4       1 <0>        -0.5040
     22 C18        10.1603   -7.2008    9.2459 C.3       1 <0>        -0.0414
     23 C19        10.9432   -7.5734   10.5066 C.3       1 <0>         0.0854
     24 H1         10.6936   -6.8781   11.3080 H         1 <0>         0.1361
     25 C20        10.5761   -8.9962   10.9330 C.3       1 <0>         0.0297
     26 O1         11.2171   -9.3022   12.1730 O.3       1 <0>        -0.3027
     27 C21        10.9936  -10.5370   12.6948 C.ar      1 <0>         0.1166
     28 C22        10.1789  -11.4376   12.0243 C.ar      1 <0>        -0.2095
     29 C23         9.9537  -12.6923   12.5566 C.ar      1 <0>        -0.0802
     30 C24        10.5392  -13.0507   13.7568 C.ar      1 <0>        -0.1475
     31 C25        11.3512  -12.1547   14.4273 C.ar      1 <0>        -0.0765
     32 C26        11.5845  -10.9009   13.8961 C.ar      1 <0>        -0.1445
     33 O2         12.3444   -7.5042   10.2350 O.3       1 <0>        -0.5433
     34 H2          2.4325    5.1741   -0.5834 H         1 <0>         0.1247
     35 H3          4.7948    4.8985   -1.2213 H         1 <0>         0.1250
     36 H4          5.8678    2.6892   -1.0457 H         1 <0>         0.1219
     37 H5          2.2142    1.0296    0.3989 H         1 <0>         0.1218
     38 H6          1.1408    3.2385    0.2219 H         1 <0>         0.1249
     39 H7          4.0172   -0.4079   -0.3603 H         1 <0>         0.0809
     40 H8          5.5419    0.2847   -0.9637 H         1 <0>         0.0810
     41 H9          6.1308    0.9937    1.3383 H         1 <0>         0.0945
     42 H10         4.6061    0.3012    1.9416 H         1 <0>         0.0945
     43 H11         6.0017   -1.7104    0.5337 H         1 <0>         0.4012
     44 H12         7.1527   -3.3050    1.7952 H         1 <0>         0.4094
     45 H13         6.4390   -2.2786    5.0198 H         1 <0>         0.1538
     46 H14         7.7015   -2.8817    7.0445 H         1 <0>         0.1297
     47 H15        10.8612   -4.4206    4.6274 H         1 <0>         0.1284
     48 H16         9.6021   -3.8310    2.5966 H         1 <0>         0.1294
     49 H17        11.1971   -4.0014    6.9925 H         1 <0>         0.0968
     50 H18         9.8787   -3.3590    8.0012 H         1 <0>         0.0983
     51 H19         8.6923   -5.5299    7.8333 H         1 <0>         0.1352
     52 H20        10.0107   -6.1724    6.8247 H         1 <0>         0.1335
     53 H21        11.5022   -5.7859    8.6447 H         1 <0>         0.4334
     54 H22         9.0915   -7.2537    9.4531 H         1 <0>         0.1472
     55 H23        10.4099   -7.8962    8.4445 H         1 <0>         0.1394
     56 H24         9.4955   -9.0718   11.0543 H         1 <0>         0.0813
     57 H25        10.9062   -9.7009   10.1697 H         1 <0>         0.0761
     58 H26         9.7207  -11.1580   11.0871 H         1 <0>         0.1233
     59 H27         9.3195  -13.3939   12.0350 H         1 <0>         0.1284
     60 H28        10.3616  -14.0319   14.1715 H         1 <0>         0.1296
     61 H29        11.8071  -12.4368   15.3648 H         1 <0>         0.1352
     62 H30        12.2224  -10.2030   14.4179 H         1 <0>         0.1333
     63 H31        12.6384   -8.0980    9.5306 H         1 <0>         0.3898
     64 H32        10.2818   -5.1911    9.5784 H         1 <0>         0.4316
@<TRIPOS>BOND
     1    1    6 ar
     2    1    2 ar
     3    1   34 1
     4    2    3 ar
     5    2   35 1
     6    3    4 ar
     7    3   36 1
     8    4    5 ar
     9    4    7 1
    10    5    6 ar
    11    5   37 1
    12    6   38 1
    13    7    8 1
    14    7   39 1
    15    7   40 1
    16    8    9 1
    17    8   41 1
    18    8   42 1
    19    9   10 1
    20    9   43 1
    21   10   11 2
    22   10   12 1
    23   12   13 1
    24   12   44 1
    25   13   18 ar
    26   13   14 ar
    27   14   15 ar
    28   14   45 1
    29   15   16 ar
    30   15   46 1
    31   16   17 ar
    32   16   19 1
    33   17   18 ar
    34   17   47 1
    35   18   48 1
    36   19   20 1
    37   19   49 1
    38   19   50 1
    39   20   21 1
    40   20   51 1
    41   20   52 1
    42   21   22 1
    43   21   53 1
    44   21   64 1
    45   22   23 1
    46   22   54 1
    47   22   55 1
    48   23   24 1
    49   23   25 1
    50   23   33 1
    51   25   26 1
    52   25   56 1
    53   25   57 1
    54   26   27 1
    55   27   32 ar
    56   27   28 ar
    57   28   29 ar
    58   28   58 1
    59   29   30 ar
    60   29   59 1
    61   30   31 ar
    62   30   60 1
    63   31   32 ar
    64   31   61 1
    65   32   62 1
    66   33   63 1
@<TRIPOS>MOLECULE
CHEMBL1203988
   64    66     0     0     0
SMALL
USER_CHARGES

@<TRIPOS>ATOM
      1 C1          0.3198    1.5592   -1.6464 C.ar      1 <0>        -0.1476
      2 C2          1.4958    2.2399   -1.3908 C.ar      1 <0>        -0.0767
      3 C3          2.6599    1.5399   -1.1394 C.ar      1 <0>        -0.1447
      4 C4          2.6482    0.1526   -1.1430 C.ar      1 <0>         0.1166
      5 C5          1.4668   -0.5281   -1.3992 C.ar      1 <0>        -0.2093
      6 C6          0.3055    0.1766   -1.6506 C.ar      1 <0>        -0.0799
      7 O1          3.7922   -0.5384   -0.8964 O.3       1 <0>        -0.3029
      8 C7          3.7057   -1.9646   -0.9162 C.3       1 <0>         0.0294
      9 C8          5.0820   -2.5632   -0.6193 C.3       1 <0>         0.0860
     10 H1          5.8120   -2.1622   -1.3225 H         1 <0>         0.1356
     11 C9          5.0181   -4.0851   -0.7629 C.3       1 <0>        -0.0419
     12 N1          6.3396   -4.6598   -0.4778 N.4       1 <0>        -0.5034
     13 C10         6.2782   -6.1210   -0.6158 C.3       1 <0>        -0.0078
     14 C11         7.6545   -6.7196   -0.3188 C.3       1 <0>        -0.0989
     15 C12         7.5915   -8.2187   -0.4603 C.ar      1 <0>        -0.1072
     16 C13         7.2651   -9.0016    0.6318 C.ar      1 <0>        -0.0990
     17 C14         7.2065  -10.3757    0.5054 C.ar      1 <0>        -0.0684
     18 C15         7.4759  -10.9709   -0.7201 C.ar      1 <0>         0.1520
     19 C16         7.8034  -10.1817   -1.8150 C.ar      1 <0>        -0.1226
     20 C17         7.8548   -8.8079   -1.6833 C.ar      1 <0>        -0.1009
     21 N2          7.4178  -12.3624   -0.8513 N.pl3     1 <0>        -0.6421
     22 C18         6.4201  -13.0535   -0.2654 C.2       1 <0>         0.5571
     23 S1          5.1469  -12.2199    0.5189 S.2       1 <0>        -0.6119
     24 N3          6.4246  -14.4009   -0.2968 N.pl3     1 <0>        -0.6679
     25 C19         5.3400  -15.1521    0.3401 C.3       1 <0>         0.1408
     26 C20         5.6493  -15.3320    1.8277 C.3       1 <0>        -0.1266
     27 C21         4.5166  -16.1165    2.4929 C.3       1 <0>        -0.1148
     28 C22         4.3885  -17.4890    1.8290 C.3       1 <0>        -0.1255
     29 C23         4.0792  -17.3092    0.3414 C.3       1 <0>        -0.1149
     30 C24         5.2119  -16.5246   -0.3238 C.3       1 <0>        -0.1285
     31 O2          5.4703   -2.2265    0.7141 O.3       1 <0>        -0.5438
     32 H2         -0.5901    2.1083   -1.8386 H         1 <0>         0.1295
     33 H3          1.5044    3.3199   -1.3881 H         1 <0>         0.1351
     34 H4          3.5784    2.0721   -0.9405 H         1 <0>         0.1331
     35 H5          1.4552   -1.6080   -1.4030 H         1 <0>         0.1236
     36 H6         -0.6144   -0.3529   -1.8502 H         1 <0>         0.1285
     37 H7          2.9944   -2.2960   -0.1596 H         1 <0>         0.0766
     38 H8          3.3703   -2.2947   -1.8994 H         1 <0>         0.0813
     39 H9          4.2881   -4.4861   -0.0597 H         1 <0>         0.1404
     40 H10         4.7219   -4.3419   -1.7800 H         1 <0>         0.1470
     41 H11         7.0153   -4.2887   -1.1288 H         1 <0>         0.4303
     42 H12         5.5482   -6.5220    0.0875 H         1 <0>         0.1358
     43 H13         5.9820   -6.3779   -1.6328 H         1 <0>         0.1347
     44 H14         8.3845   -6.3187   -1.0221 H         1 <0>         0.0963
     45 H15         7.9507   -6.4628    0.6982 H         1 <0>         0.0974
     46 H16         7.0561   -8.5381    1.5846 H         1 <0>         0.1295
     47 H17         6.9519  -10.9866    1.3588 H         1 <0>         0.1482
     48 H18         8.0137  -10.6416   -2.7692 H         1 <0>         0.1298
     49 H19         8.1051   -8.1933   -2.5354 H         1 <0>         0.1288
     50 H20         8.0957  -12.8299   -1.3640 H         1 <0>         0.4100
     51 H21         7.1459  -14.8733   -0.7412 H         1 <0>         0.4004
     52 H22         4.4040  -14.6051    0.2272 H         1 <0>         0.1190
     53 H23         6.5853  -15.8790    1.9406 H         1 <0>         0.0609
     54 H24         5.7406  -14.3542    2.3006 H         1 <0>         0.0788
     55 H25         4.7369  -16.2447    3.5526 H         1 <0>         0.0691
     56 H26         3.5806  -15.5695    2.3799 H         1 <0>         0.0696
     57 H27         5.3245  -18.0361    1.9420 H         1 <0>         0.0631
     58 H28         3.5816  -18.0479    2.3029 H         1 <0>         0.0689
     59 H29         3.9880  -18.2870   -0.1315 H         1 <0>         0.0720
     60 H30         3.1432  -16.7621    0.2285 H         1 <0>         0.0693
     61 H31         4.9916  -16.3965   -1.3835 H         1 <0>         0.0700
     62 H32         6.1479  -17.0717   -0.2108 H         1 <0>         0.0690
     63 H33         4.8649   -2.5521    1.3942 H         1 <0>         0.3904
     64 H34         6.6137   -4.4221    0.4636 H         1 <0>         0.4334
@<TRIPOS>BOND
     1    1    6 ar
     2    1    2 ar
     3    1   32 1
     4    2    3 ar
     5    2   33 1
     6    3    4 ar
     7    3   34 1
     8    4    5 ar
     9    4    7 1
    10    5    6 ar
    11    5   35 1
    12    6   36 1
    13    7    8 1
    14    8    9 1
    15    8   37 1
    16    8   38 1
    17    9   10 1
    18    9   11 1
    19    9   31 1
    20   11   12 1
    21   11   39 1
    22   11   40 1
    23   12   13 1
    24   12   41 1
    25   12   64 1
    26   13   14 1
    27   13   42 1
    28   13   43 1
    29   14   15 1
    30   14   44 1
    31   14   45 1
    32   15   20 ar
    33   15   16 ar
    34   16   17 ar
    35   16   46 1
    36   17   18 ar
    37   17   47 1
    38   18   19 ar
    39   18   21 1
    40   19   20 ar
    41   19   48 1
    42   20   49 1
    43   21   22 1
    44   21   50 1
    45   22   23 2
    46   22   24 1
    47   24   25 1
    48   24   51 1
    49   25   30 1
    50   25   26 1
    51   25   52 1
    52   26   27 1
    53   26   53 1
    54   26   54 1
    55   27   28 1
    56   27   55 1
    57   27   56 1
    58   28   29 1
    59   28   57 1
    60   28   58 1
    61   29   30 1
    62   29   59 1
    63   29   60 1
    64   30   61 1
    65   30   62 1
    66   31   63 1
@<TRIPOS>MOLECULE
CHEMBL456485
   84    86     0     0     0
SMALL
USER_CHARGES

@<TRIPOS>ATOM
      1 C1         -0.0167    1.3779    0.0096 C.ar      1 <0>        -0.1338
      2 C2          1.1711    2.0854    0.0021 C.ar      1 <0>        -0.0601
      3 C3          2.3773    1.4107   -0.0130 C.ar      1 <0>        -0.1015
      4 C4          2.3960    0.0283   -0.0201 C.ar      1 <0>        -0.0196
      5 C5          1.2086   -0.6790   -0.0117 C.ar      1 <0>        -0.6743
      6 C6          0.0021   -0.0041    0.0020 C.ar      1 <0>        -0.0245
      7 S1          1.2325   -2.4408   -0.0219 S.o2      1 <0>         2.6893
      8 O1         -0.0129   -2.8607   -0.5621 O.2       1 <0>        -0.9483
      9 O2          2.4774   -2.8268   -0.5880 O.2       1 <0>        -0.9499
     10 N1          1.2558   -2.9393    1.5571 N.pl3     1 <0>        -1.0003
     11 C7          2.5277   -3.1442    2.2681 C.3       1 <0>         0.0851
     12 C8          2.4645   -2.3877    3.5999 C.3       1 <0>         0.0475
     13 O3          1.2773   -2.7665    4.3005 O.3       1 <0>        -0.3742
     14 C9          0.0648   -2.4312    3.6215 C.3       1 <0>         0.0470
     15 C10         0.0050   -3.1845    2.2925 C.3       1 <0>         0.0844
     16 C11         3.6720    2.1819   -0.0222 C.3       1 <0>        -0.0823
     17 C12         4.1244    2.4362    1.4171 C.3       1 <0>        -0.1119
     18 C13         5.4389    3.2191    1.4077 C.3       1 <0>        -0.1196
     19 C14         5.8913    3.4734    2.8470 C.3       1 <0>         0.0630
     20 O4          7.1190    4.2047    2.8382 O.3       1 <0>        -0.3898
     21 C15         7.6312    4.4960    4.1401 C.3       1 <0>         0.0611
     22 C16         8.9404    5.2771    4.0099 C.3       1 <0>        -0.1206
     23 C17         9.4889    5.5890    5.4038 C.3       1 <0>        -0.1184
     24 C18        10.7980    6.3701    5.2736 C.3       1 <0>        -0.1169
     25 C19        11.3465    6.6820    6.6675 C.3       1 <0>        -0.1501
     26 C20        12.6557    7.4631    6.5373 C.3       1 <0>        -0.0105
     27 N2         13.1823    7.7626    7.8756 N.4       1 <0>        -0.5057
     28 C21        14.4392    8.5126    7.7506 C.3       1 <0>        -0.0426
     29 C22        14.9877    8.8245    9.1445 C.3       1 <0>         0.1378
     30 H1         15.1721    7.8928    9.6792 H         1 <0>         0.1325
     31 C23        16.2772    9.5938    9.0163 C.ar      1 <0>        -0.1555
     32 C24        16.2491   10.9686    8.8700 C.ar      1 <0>        -0.0898
     33 C25        17.4295   11.6760    8.7519 C.ar      1 <0>        -0.1374
     34 C26        18.6443   11.0061    8.7805 C.ar      1 <0>         0.1336
     35 C27        18.6698    9.6270    8.9278 C.ar      1 <0>        -0.1102
     36 C28        17.4863    8.9246    9.0508 C.ar      1 <0>        -0.0623
     37 C29        19.9873    8.8962    8.9593 C.3       1 <0>         0.1174
     38 O5         19.7515    7.4958    9.1182 O.3       1 <0>        -0.5757
     39 O6         19.8071   11.6998    8.6641 O.3       1 <0>        -0.4942
     40 O7         14.0355    9.6078    9.8668 O.3       1 <0>        -0.5480
     41 H2         -0.9591    1.9051    0.0259 H         1 <0>         0.1353
     42 H3          1.1565    3.1653    0.0076 H         1 <0>         0.1314
     43 H4          3.3385   -0.4989   -0.0326 H         1 <0>         0.1380
     44 H5         -0.9258   -0.5567    0.0079 H         1 <0>         0.1399
     45 H6          2.6757   -4.2076    2.4567 H         1 <0>         0.0873
     46 H7          3.3509   -2.7596    1.6661 H         1 <0>         0.0988
     47 H8          3.3380   -2.6373    4.2022 H         1 <0>         0.1075
     48 H9          2.4477   -1.3147    3.4086 H         1 <0>         0.0549
     49 H10        -0.7882   -2.7120    4.2393 H         1 <0>         0.1102
     50 H11         0.0392   -1.3584    3.4303 H         1 <0>         0.0556
     51 H12        -0.8416   -2.8265    1.7067 H         1 <0>         0.1007
     52 H13        -0.1053   -4.2520    2.4836 H         1 <0>         0.0876
     53 H14         4.4344    1.6057   -0.5463 H         1 <0>         0.0797
     54 H15         3.5236    3.1349   -0.5302 H         1 <0>         0.0791
     55 H16         3.3620    3.0125    1.9412 H         1 <0>         0.0667
     56 H17         4.2727    1.4832    1.9250 H         1 <0>         0.0665
     57 H18         6.2013    2.6429    0.8836 H         1 <0>         0.0739
     58 H19         5.2905    4.1721    0.8997 H         1 <0>         0.0731
     59 H20         5.1289    4.0497    3.3711 H         1 <0>         0.0491
     60 H21         6.0396    2.5205    3.3549 H         1 <0>         0.0497
     61 H22         6.9049    5.0935    4.6910 H         1 <0>         0.0481
     62 H23         7.8157    3.5643    4.6748 H         1 <0>         0.0485
     63 H24         9.6667    4.6796    3.4590 H         1 <0>         0.0734
     64 H25         8.7560    6.2088    3.4752 H         1 <0>         0.0731
     65 H26         8.7625    6.1865    5.9547 H         1 <0>         0.0687
     66 H27         9.6733    4.6573    5.9385 H         1 <0>         0.0690
     67 H28        11.5244    5.7726    4.7227 H         1 <0>         0.0762
     68 H29        10.6136    7.3018    4.7389 H         1 <0>         0.0758
     69 H30        10.6202    7.2795    7.2184 H         1 <0>         0.0883
     70 H31        11.5309    5.7503    7.2022 H         1 <0>         0.0886
     71 H32        13.3820    6.8656    5.9864 H         1 <0>         0.1326
     72 H33        12.4712    8.3948    6.0026 H         1 <0>         0.1316
     73 H34        12.5099    8.3157    8.3856 H         1 <0>         0.4315
     74 H35        15.1656    7.9151    7.1997 H         1 <0>         0.1450
     75 H36        14.2548    9.4443    7.2159 H         1 <0>         0.1366
     76 H37        15.3033   11.4897    8.8478 H         1 <0>         0.1275
     77 H38        17.4070   12.7497    8.6370 H         1 <0>         0.1403
     78 H39        17.5058    7.8513    9.1695 H         1 <0>         0.1419
     79 H40        20.5221    9.0710    8.0257 H         1 <0>         0.0707
     80 H41        20.5853    9.2610    9.7944 H         1 <0>         0.0654
     81 H42        20.5574    6.9620    9.1467 H         1 <0>         0.3933
     82 H43        20.1751   11.9951    9.5081 H         1 <0>         0.4012
     83 H44        13.8230   10.4531    9.4480 H         1 <0>         0.3878
     84 H45        13.3530    6.9001    8.3706 H         1 <0>         0.4295
@<TRIPOS>BOND
     1    1    6 ar
     2    1    2 ar
     3    1   41 1
     4    2    3 ar
     5    2   42 1
     6    3    4 ar
     7    3   16 1
     8    4    5 ar
     9    4   43 1
    10    5    6 ar
    11    5    7 1
    12    6   44 1
    13    7    8 2
    14    7    9 2
    15    7   10 1
    16   10   15 1
    17   10   11 1
    18   11   12 1
    19   11   45 1
    20   11   46 1
    21   12   13 1
    22   12   47 1
    23   12   48 1
    24   13   14 1
    25   14   15 1
    26   14   49 1
    27   14   50 1
    28   15   51 1
    29   15   52 1
    30   16   17 1
    31   16   53 1
    32   16   54 1
    33   17   18 1
    34   17   55 1
    35   17   56 1
    36   18   19 1
    37   18   57 1
    38   18   58 1
    39   19   20 1
    40   19   59 1
    41   19   60 1
    42   20   21 1
    43   21   22 1
    44   21   61 1
    45   21   62 1
    46   22   23 1
    47   22   63 1
    48   22   64 1
    49   23   24 1
    50   23   65 1
    51   23   66 1
    52   24   25 1
    53   24   67 1
    54   24   68 1
    55   25   26 1
    56   25   69 1
    57   25   70 1
    58   26   27 1
    59   26   71 1
    60   26   72 1
    61   27   28 1
    62   27   73 1
    63   27   84 1
    64   28   29 1
    65   28   74 1
    66   28   75 1
    67   29   30 1
    68   29   31 1
    69   29   40 1
    70   31   36 ar
    71   31   32 ar
    72   32   33 ar
    73   32   76 1
    74   33   34 ar
    75   33   77 1
    76   34   35 ar
    77   34   39 1
    78   35   36 ar
    79   35   37 1
    80   36   78 1
    81   37   38 1
    82   37   79 1
    83   37   80 1
    84   38   81 1
    85   39   82 1
    86   40   83 1
@<TRIPOS>MOLECULE
CHEMBL12769
   62    65     0     0     0
SMALL
USER_CHARGES

@<TRIPOS>ATOM
      1 C1         -0.0164    1.3571    0.0095 C.ar      1 <0>        -0.1284
      2 C2          1.1699    2.0885    0.0021 C.ar      1 <0>        -0.0879
      3 C3          2.3792    1.4650   -0.0128 C.ar      1 <0>        -0.1040
      4 C4          2.4398    0.0603   -0.0209 C.ar      1 <0>         0.1548
      5 C5          1.2323   -0.6813   -0.0134 C.ar      1 <0>        -0.1290
      6 C6          0.0021   -0.0041    0.0020 C.ar      1 <0>        -0.0800
      7 C7          1.2949   -2.0872   -0.0215 C.ar      1 <0>         0.0543
      8 C8          2.5269   -2.6774   -0.0364 C.ar      1 <0>        -0.6782
      9 C9          3.6752   -1.8891   -0.0432 C.ar      1 <0>         0.2131
     10 N1          3.6131   -0.5795   -0.0351 N.ar      1 <0>        -0.4872
     11 S1          2.6631   -4.4341   -0.0465 S.o2      1 <0>         2.6141
     12 O1          3.9414   -4.7454    0.4904 O.2       1 <0>        -1.0184
     13 O2          1.4582   -4.9381    0.5136 O.2       1 <0>        -1.0242
     14 N2          2.6855   -4.9144   -1.6312 N.2       1 <0>        -1.0816
     15 C10         2.7878   -6.2707   -1.9484 C.ar      1 <0>         0.2964
     16 C11         2.8649   -7.2186   -0.9359 C.ar      1 <0>        -0.2644
     17 C12         2.9655   -8.5590   -1.2531 C.ar      1 <0>        -0.0473
     18 C13         2.9899   -8.9578   -2.5770 C.ar      1 <0>        -0.2349
     19 C14         2.9133   -8.0169   -3.5874 C.ar      1 <0>        -0.0635
     20 C15         2.8068   -6.6753   -3.2772 C.ar      1 <0>        -0.1800
     21 C16         3.1007  -10.4213   -2.9193 C.3       1 <0>        -0.0719
     22 C17         1.6999  -11.0270   -3.0283 C.3       1 <0>        -0.0109
     23 N3          1.8080  -12.4535   -3.3620 N.4       1 <0>        -0.5038
     24 C18         0.4631  -13.0351   -3.4667 C.3       1 <0>        -0.0419
     25 C19         0.5756  -14.5209   -3.8143 C.3       1 <0>         0.0862
     26 H1          1.1342  -15.0356   -3.0325 H         1 <0>         0.1349
     27 C20        -0.8252  -15.1266   -3.9233 C.3       1 <0>         0.0285
     28 O3         -0.7196  -16.5363   -4.1324 O.3       1 <0>        -0.3012
     29 C21        -1.8822  -17.2315   -4.2517 C.ar      1 <0>         0.1123
     30 C22        -3.0978  -16.5682   -4.1745 C.ar      1 <0>        -0.1913
     31 C23        -4.2788  -17.2744   -4.2957 C.ar      1 <0>        -0.1052
     32 C24        -4.2489  -18.6467   -4.4949 C.ar      1 <0>         0.0765
     33 C25        -3.0332  -19.3098   -4.5730 C.ar      1 <0>        -0.1034
     34 C26        -1.8522  -18.6030   -4.4561 C.ar      1 <0>        -0.1279
     35 O4         -5.4115  -19.3420   -4.6133 O.3       1 <0>        -0.4963
     36 O5          1.2566  -14.6680   -5.0619 O.3       1 <0>        -0.5444
     37 H2         -0.9628    1.8771    0.0259 H         1 <0>         0.1298
     38 H3          1.1286    3.1677    0.0079 H         1 <0>         0.1319
     39 H4          3.2890    2.0469   -0.0187 H         1 <0>         0.1379
     40 H5         -0.9239   -0.5599    0.0079 H         1 <0>         0.1336
     41 H6          0.3941   -2.6830   -0.0157 H         1 <0>         0.1532
     42 H7          4.6425   -2.3695   -0.0546 H         1 <0>         0.1729
     43 H8          2.8467   -6.9077    0.0982 H         1 <0>         0.1019
     44 H9          3.0255   -9.2964   -0.4664 H         1 <0>         0.1024
     45 H10         2.9326   -8.3318   -4.6203 H         1 <0>         0.1050
     46 H11         2.7425   -5.9413   -4.0668 H         1 <0>         0.1171
     47 H12         3.6202  -10.5335   -3.8709 H         1 <0>         0.0812
     48 H13         3.6593  -10.9360   -2.1375 H         1 <0>         0.0803
     49 H14         1.1805  -10.9148   -2.0767 H         1 <0>         0.1313
     50 H15         1.1414  -10.5123   -3.8101 H         1 <0>         0.1311
     51 H16         2.2888  -12.5574   -4.2430 H         1 <0>         0.4302
     52 H17        -0.0564  -12.9229   -2.5151 H         1 <0>         0.1455
     53 H18        -0.0955  -12.5204   -4.2485 H         1 <0>         0.1382
     54 H19        -1.3761  -14.9362   -3.0022 H         1 <0>         0.0826
     55 H20        -1.3527  -14.6733   -4.7625 H         1 <0>         0.0770
     56 H21        -3.1211  -15.4997   -4.0194 H         1 <0>         0.1302
     57 H22        -5.2254  -16.7581   -4.2349 H         1 <0>         0.1347
     58 H23        -3.0099  -20.3784   -4.7278 H         1 <0>         0.1401
     59 H24        -0.9055  -19.1188   -4.5207 H         1 <0>         0.1383
     60 H25        -5.7348  -19.4160   -5.5216 H         1 <0>         0.3922
     61 H26         0.8150  -14.2338   -5.8046 H         1 <0>         0.3894
     62 H27         2.3250  -12.9300   -2.6384 H         1 <0>         0.4280
@<TRIPOS>BOND
     1    1    6 ar
     2    1    2 ar
     3    1   37 1
     4    2    3 ar
     5    2   38 1
     6    3    4 ar
     7    3   39 1
     8    4   10 ar
     9    4    5 ar
    10    5    6 ar
    11    5    7 ar
    12    6   40 1
    13    7    8 ar
    14    7   41 1
    15    8    9 ar
    16    8   11 1
    17    9   10 ar
    18    9   42 1
    19   11   12 2
    20   11   13 2
    21   11   14 1
    22   14   15 1
    23   15   20 ar
    24   15   16 ar
    25   16   17 ar
    26   16   43 1
    27   17   18 ar
    28   17   44 1
    29   18   19 ar
    30   18   21 1
    31   19   20 ar
    32   19   45 1
    33   20   46 1
    34   21   22 1
    35   21   47 1
    36   21   48 1
    37   22   23 1
    38   22   49 1
    39   22   50 1
    40   23   24 1
    41   23   51 1
    42   23   62 1
    43   24   25 1
    44   24   52 1
    45   24   53 1
    46   25   26 1
    47   25   27 1
    48   25   36 1
    49   27   28 1
    50   27   54 1
    51   27   55 1
    52   28   29 1
    53   29   34 ar
    54   29   30 ar
    55   30   31 ar
    56   30   56 1
    57   31   32 ar
    58   31   57 1
    59   32   33 ar
    60   32   35 1
    61   33   34 ar
    62   33   58 1
    63   34   59 1
    64   35   60 1
    65   36   61 1
@<TRIPOS>MOLECULE
CHEMBL12769__1
   63    66     0     0     0
SMALL
USER_CHARGES

@<TRIPOS>ATOM
      1 C1          8.1182   -8.9350    0.4064 C.ar      1 <0>        -0.1176
      2 C2          7.4786  -10.1553    0.1971 C.ar      1 <0>        -0.0774
      3 C3          6.1364  -10.2169   -0.0179 C.ar      1 <0>        -0.1016
      4 C4          5.3768   -9.0337   -0.0302 C.ar      1 <0>         0.1661
      5 C5          6.0294   -7.7940    0.1829 C.ar      1 <0>        -0.1296
      6 C6          7.4164   -7.7685    0.4016 C.ar      1 <0>        -0.0860
      7 C7          5.2675   -6.6108    0.1703 C.ar      1 <0>         0.0674
      8 C8          3.9229   -6.7124   -0.0486 C.ar      1 <0>        -0.7368
      9 C9          3.3441   -7.9631   -0.2512 C.ar      1 <0>         0.2114
     10 N1          4.0570   -9.0634   -0.2384 N.ar      1 <0>        -0.4714
     11 S1          2.9215   -5.2628   -0.0740 S.o2      1 <0>         2.6945
     12 O1          1.6284   -5.6547    0.3656 O.2       1 <0>        -0.9342
     13 O2          3.6689   -4.2416    0.5723 O.2       1 <0>        -0.9420
     14 N2          2.7643   -4.8041   -1.6574 N.pl3     1 <0>        -1.0661
     15 C10         3.8919   -4.4280   -2.3909 C.ar      1 <0>         0.1411
     16 C11         4.4831   -3.1901   -2.1728 C.ar      1 <0>        -0.0999
     17 C12         5.5982   -2.8215   -2.8994 C.ar      1 <0>        -0.0983
     18 C13         6.1260   -3.6831   -3.8435 C.ar      1 <0>        -0.1004
     19 C14         5.5399   -4.9162   -4.0632 C.ar      1 <0>        -0.1006
     20 C15         4.4280   -5.2934   -3.3360 C.ar      1 <0>        -0.1081
     21 C16         7.3424   -3.2771   -4.6352 C.3       1 <0>        -0.1028
     22 C17         8.6049   -3.7232   -3.8950 C.3       1 <0>        -0.0084
     23 N3          9.7906   -3.3274   -4.6667 N.4       1 <0>        -0.5039
     24 C18        11.0028   -3.7557   -3.9560 C.3       1 <0>        -0.0420
     25 C19        12.2377   -3.3436   -4.7597 C.3       1 <0>         0.0854
     26 H1         12.2494   -2.2600   -4.8777 H         1 <0>         0.1367
     27 C20        13.5002   -3.7896   -4.0195 C.3       1 <0>         0.0290
     28 O3         14.6535   -3.3040   -4.7095 O.3       1 <0>        -0.3010
     29 C21        15.8665   -3.6145   -4.1790 C.ar      1 <0>         0.1085
     30 C22        15.9432   -4.3755   -3.0219 C.ar      1 <0>        -0.1913
     31 C23        17.1753   -4.6908   -2.4831 C.ar      1 <0>        -0.1063
     32 C24        18.3359   -4.2469   -3.0993 C.ar      1 <0>         0.0809
     33 C25        18.2593   -3.4867   -4.2568 C.ar      1 <0>        -0.1025
     34 C26        17.0272   -3.1750   -4.7981 C.ar      1 <0>        -0.1257
     35 O4         19.5488   -4.5567   -2.5683 O.3       1 <0>        -0.4956
     36 O5         12.1965   -3.9625   -6.0471 O.3       1 <0>        -0.5430
     37 H2          9.1841   -8.9148    0.5792 H         1 <0>         0.1340
     38 H3          8.0577  -11.0669    0.2052 H         1 <0>         0.1388
     39 H4          5.6564  -11.1709   -0.1788 H         1 <0>         0.1447
     40 H5          7.9233   -6.8289    0.5651 H         1 <0>         0.1338
     41 H6          5.7328   -5.6493    0.3296 H         1 <0>         0.1557
     42 H7          2.2798   -8.0282   -0.4227 H         1 <0>         0.1755
     43 H8          1.8890   -4.7966   -2.0756 H         1 <0>         0.4333
     44 H9          4.0710   -2.5164   -1.4360 H         1 <0>         0.1445
     45 H10         6.0584   -1.8592   -2.7303 H         1 <0>         0.1343
     46 H11         5.9546   -5.5867   -4.8013 H         1 <0>         0.1310
     47 H12         3.9735   -6.2584   -3.5049 H         1 <0>         0.1354
     48 H13         7.3110   -3.7492   -5.6171 H         1 <0>         0.0993
     49 H14         7.3541   -2.1936   -4.7531 H         1 <0>         0.1005
     50 H15         8.6363   -3.2511   -2.9130 H         1 <0>         0.1364
     51 H16         8.5932   -4.8067   -3.7770 H         1 <0>         0.1341
     52 H17         9.7615   -3.7644   -5.5757 H         1 <0>         0.4339
     53 H18        11.0342   -3.2837   -2.9740 H         1 <0>         0.1478
     54 H19        10.9911   -4.8393   -3.8380 H         1 <0>         0.1397
     55 H20        13.4878   -3.3891   -3.0059 H         1 <0>         0.0821
     56 H21        13.5324   -4.8784   -3.9795 H         1 <0>         0.0766
     57 H22        15.0395   -4.7211   -2.5421 H         1 <0>         0.1282
     58 H23        17.2350   -5.2828   -1.5817 H         1 <0>         0.1352
     59 H24        19.1630   -3.1408   -4.7365 H         1 <0>         0.1419
     60 H25        16.9677   -2.5862   -5.7015 H         1 <0>         0.1388
     61 H26        19.9239   -5.3838   -2.9003 H         1 <0>         0.3941
     62 H27        12.1841   -4.9290   -6.0186 H         1 <0>         0.3899
     63 H28         9.8014   -2.3244   -4.7759 H         1 <0>         0.4321
@<TRIPOS>BOND
     1    1    6 ar
     2    1    2 ar
     3    1   37 1
     4    2    3 ar
     5    2   38 1
     6    3    4 ar
     7    3   39 1
     8    4   10 ar
     9    4    5 ar
    10    5    6 ar
    11    5    7 ar
    12    6   40 1
    13    7    8 ar
    14    7   41 1
    15    8    9 ar
    16    8   11 1
    17    9   10 ar
    18    9   42 1
    19   11   12 2
    20   11   13 2
    21   11   14 1
    22   14   15 1
    23   14   43 1
    24   15   20 ar
    25   15   16 ar
    26   16   17 ar
    27   16   44 1
    28   17   18 ar
    29   17   45 1
    30   18   19 ar
    31   18   21 1
    32   19   20 ar
    33   19   46 1
    34   20   47 1
    35   21   22 1
    36   21   48 1
    37   21   49 1
    38   22   23 1
    39   22   50 1
    40   22   51 1
    41   23   24 1
    42   23   52 1
    43   23   63 1
    44   24   25 1
    45   24   53 1
    46   24   54 1
    47   25   26 1
    48   25   27 1
    49   25   36 1
    50   27   28 1
    51   27   55 1
    52   27   56 1
    53   28   29 1
    54   29   34 ar
    55   29   30 ar
    56   30   31 ar
    57   30   57 1
    58   31   32 ar
    59   31   58 1
    60   32   33 ar
    61   32   35 1
    62   33   34 ar
    63   33   59 1
    64   34   60 1
    65   35   61 1
    66   36   62 1
@<TRIPOS>MOLECULE
CHEMBL1085016
   63    66     0     0     0
SMALL
USER_CHARGES

@<TRIPOS>ATOM
      1 C1         -0.0157    1.3058    0.0092 C.2       1 <0>        -0.1871
      2 C2          0.0021   -0.0041    0.0020 C.2       1 <0>        -0.1497
      3 C3         -1.2926   -0.7753    0.0102 C.3       1 <0>        -0.0477
      4 C4         -1.3183   -1.7262   -1.1586 C.ar      1 <0>        -0.0997
      5 C5         -1.9255   -1.3514   -2.3417 C.ar      1 <0>        -0.0757
      6 C6         -1.9499   -2.2234   -3.4141 C.ar      1 <0>        -0.1433
      7 C7         -1.3665   -3.4726   -3.3059 C.ar      1 <0>        -0.0838
      8 C8         -0.7578   -3.8519   -2.1254 C.ar      1 <0>        -0.2065
      9 C9         -0.7274   -2.9764   -1.0494 C.ar      1 <0>         0.1197
     10 O1         -0.1242   -3.3451    0.1113 O.3       1 <0>        -0.2973
     11 C10         0.4634   -4.6471    0.1519 C.3       1 <0>         0.0295
     12 C11         1.0894   -4.8814    1.5282 C.3       1 <0>         0.0866
     13 C12         1.8256   -6.2226    1.5319 C.3       1 <0>        -0.0434
     14 N1          2.4267   -6.4475    2.8533 N.4       1 <0>        -0.3775
     15 C13         3.4550   -5.4298    3.1011 C.3       1 <0>        -0.0109
     16 C14         4.0277   -5.6100    4.5086 C.3       1 <0>        -0.1371
     17 C15         4.6489   -7.0048    4.6262 C.3       1 <0>        -0.1198
     18 C16         3.5862   -8.0559    4.2931 C.3       1 <0>        -0.1435
     19 C17         3.0298   -7.7851    2.8936 C.3       1 <0>        -0.0037
     20 C18         5.1529   -7.2217    6.0545 C.3       1 <0>         0.1151
     21 N2          5.8524   -8.5063    6.1358 N.am      1 <0>        -0.5804
     22 C19         5.2610   -9.6776    6.4326 C.2       1 <0>         0.5774
     23 O2          4.0809   -9.8351    6.6725 O.2       1 <0>        -0.4615
     24 C20         6.2878  -10.7407    6.4178 C.ar      1 <0>        -0.1510
     25 C21         6.2685  -12.1080    6.6422 C.ar      1 <0>        -0.0401
     26 C22         7.4436  -12.8367    6.5464 C.ar      1 <0>        -0.0906
     27 C23         8.6335  -12.2090    6.2287 C.ar      1 <0>        -0.0884
     28 C24         8.6680  -10.8421    6.0015 C.ar      1 <0>        -0.0405
     29 C25         7.5011  -10.1007    6.0938 C.ar      1 <0>        -0.1467
     30 C26         7.1696   -8.6709    5.9178 C.2       1 <0>         0.5754
     31 O3          7.9553   -7.7917    5.6270 O.2       1 <0>        -0.4543
     32 O4          0.0626   -4.8988    2.5218 O.3       1 <0>        -0.5420
     33 H1          0.9122    1.8585    0.0033 H         1 <0>         0.0992
     34 H2         -0.9582    1.8330    0.0166 H         1 <0>         0.0989
     35 H3          0.9446   -0.5313   -0.0098 H         1 <0>         0.1043
     36 H4         -1.3737   -1.3393    0.9394 H         1 <0>         0.0846
     37 H5         -2.1295   -0.0812   -0.0676 H         1 <0>         0.0782
     38 H6         -2.3819   -0.3764   -2.4286 H         1 <0>         0.1333
     39 H7         -2.4256   -1.9288   -4.3378 H         1 <0>         0.1295
     40 H8         -1.3871   -4.1522   -4.1449 H         1 <0>         0.1278
     41 H9         -0.3023   -4.8275   -2.0414 H         1 <0>         0.1233
     42 H10        -0.3050   -5.3984   -0.0303 H         1 <0>         0.0759
     43 H11         1.2340   -4.7220   -0.6153 H         1 <0>         0.0801
     44 H12         1.7941   -4.0794    1.7480 H         1 <0>         0.1343
     45 H13         1.1209   -7.0245    1.3121 H         1 <0>         0.1392
     46 H14         2.6089   -6.2092    0.7740 H         1 <0>         0.1441
     47 H15         4.2544   -5.5356    2.3677 H         1 <0>         0.1311
     48 H16         3.0121   -4.4377    3.0139 H         1 <0>         0.1363
     49 H17         4.7923   -4.8546    4.6899 H         1 <0>         0.1199
     50 H18         3.2291   -5.5041    5.2428 H         1 <0>         0.0964
     51 H19         5.4808   -7.0935    3.9275 H         1 <0>         0.0972
     52 H20         4.0351   -9.0488    4.3204 H         1 <0>         0.1061
     53 H21         2.7784   -8.0008    5.0229 H         1 <0>         0.0989
     54 H22         2.2730   -8.5318    2.6532 H         1 <0>         0.1331
     55 H23         3.8383   -7.8407    2.1647 H         1 <0>         0.1292
     56 H24         5.8375   -6.4175    6.3242 H         1 <0>         0.1089
     57 H25         4.3069   -7.2245    6.7418 H         1 <0>         0.1049
     58 H26         5.3418  -12.6036    6.8912 H         1 <0>         0.1444
     59 H27         7.4296  -13.9023    6.7216 H         1 <0>         0.1475
     60 H28         9.5427  -12.7876    6.1574 H         1 <0>         0.1478
     61 H29         9.6006  -10.3569    5.7540 H         1 <0>         0.1452
     62 H30        -0.6014   -5.5892    2.3891 H         1 <0>         0.3900
     63 H31         1.7122   -6.3804    3.5626 H         1 <0>         0.4289
@<TRIPOS>BOND
     1    1    2 2
     2    1   33 1
     3    1   34 1
     4    2    3 1
     5    2   35 1
     6    3    4 1
     7    3   36 1
     8    3   37 1
     9    4    9 ar
    10    4    5 ar
    11    5    6 ar
    12    5   38 1
    13    6    7 ar
    14    6   39 1
    15    7    8 ar
    16    7   40 1
    17    8    9 ar
    18    8   41 1
    19    9   10 1
    20   10   11 1
    21   11   12 1
    22   11   42 1
    23   11   43 1
    24   12   13 1
    25   12   32 1
    26   12   44 1
    27   13   14 1
    28   13   45 1
    29   13   46 1
    30   14   19 1
    31   14   15 1
    32   14   63 1
    33   15   16 1
    34   15   47 1
    35   15   48 1
    36   16   17 1
    37   16   49 1
    38   16   50 1
    39   17   18 1
    40   17   20 1
    41   17   51 1
    42   18   19 1
    43   18   52 1
    44   18   53 1
    45   19   54 1
    46   19   55 1
    47   20   21 1
    48   20   56 1
    49   20   57 1
    50   21   30 am
    51   21   22 am
    52   22   23 2
    53   22   24 1
    54   24   29 ar
    55   24   25 ar
    56   25   26 ar
    57   25   58 1
    58   26   27 ar
    59   26   59 1
    60   27   28 ar
    61   27   60 1
    62   28   29 ar
    63   28   61 1
    64   29   30 1
    65   30   31 2
    66   32   62 1
@<TRIPOS>MOLECULE
CHEMBL1085016__1
   63    66     0     0     0
SMALL
USER_CHARGES

@<TRIPOS>ATOM
      1 C1         -5.5119   -9.4619   -0.0460 C.2       1 <0>        -0.1880
      2 C2         -4.3004   -8.9730   -0.1423 C.2       1 <0>        -0.1487
      3 C3         -3.2591   -9.6951   -0.9579 C.3       1 <0>        -0.0466
      4 C4         -2.6856   -8.7547   -1.9864 C.ar      1 <0>        -0.0999
      5 C5         -3.2040   -8.7309   -3.2668 C.ar      1 <0>        -0.0757
      6 C6         -2.6781   -7.8688   -4.2109 C.ar      1 <0>        -0.1433
      7 C7         -1.6324   -7.0279   -3.8764 C.ar      1 <0>        -0.0838
      8 C8         -1.1109   -7.0475   -2.5976 C.ar      1 <0>        -0.2066
      9 C9         -1.6405   -7.9081   -1.6467 C.ar      1 <0>         0.1197
     10 O1         -1.1329   -7.9253   -0.3862 O.3       1 <0>        -0.2973
     11 C10        -0.0575   -7.0264   -0.1077 C.3       1 <0>         0.0299
     12 C11         0.3780   -7.1884    1.3501 C.3       1 <0>         0.0861
     13 C12         1.6082   -6.3181    1.6146 C.3       1 <0>        -0.0432
     14 N1          2.0354   -6.4851    3.0102 N.4       1 <0>        -0.3778
     15 C13         3.1168   -5.5378    3.3060 C.3       1 <0>        -0.0041
     16 C14         3.5103   -5.6513    4.7804 C.3       1 <0>        -0.1385
     17 C15         3.9866   -7.0781    5.0676 C.3       1 <0>        -0.1201
     18 C16         2.8776   -8.0626    4.6854 C.3       1 <0>        -0.1419
     19 C17         2.5076   -7.8598    3.2146 C.3       1 <0>        -0.0100
     20 C18         4.3064   -7.2207    6.5570 C.3       1 <0>         0.1154
     21 N2          4.8741   -8.5474    6.8097 N.am      1 <0>        -0.5805
     22 C19         4.1505   -9.6394    7.1156 C.2       1 <0>         0.5768
     23 O2          2.9417   -9.6809    7.2249 O.2       1 <0>        -0.4600
     24 C20         5.0728  -10.7802    7.2963 C.ar      1 <0>        -0.1505
     25 C21         4.9058  -12.1191    7.6118 C.ar      1 <0>        -0.0400
     26 C22         6.0140  -12.9462    7.7065 C.ar      1 <0>        -0.0903
     27 C23         7.2835  -12.4445    7.4885 C.ar      1 <0>        -0.0886
     28 C24         7.4658  -11.1073    7.1722 C.ar      1 <0>        -0.0404
     29 C25         6.3672  -10.2686    7.0741 C.ar      1 <0>        -0.1470
     30 C26         6.1873   -8.8353    6.7608 C.2       1 <0>         0.5758
     31 O3          7.0764   -8.0487    6.5042 O.2       1 <0>        -0.4552
     32 O4         -0.6865   -6.7833    2.2131 O.3       1 <0>        -0.5412
     33 H1         -6.2582   -8.9444    0.5385 H         1 <0>         0.0993
     34 H2         -5.7657  -10.3801   -0.5548 H         1 <0>         0.0982
     35 H3         -4.0479   -8.0524    0.3629 H         1 <0>         0.1061
     36 H4         -2.4624  -10.0455   -0.3017 H         1 <0>         0.0825
     37 H5         -3.7174  -10.5471   -1.4601 H         1 <0>         0.0779
     38 H6         -4.0206   -9.3867   -3.5305 H         1 <0>         0.1333
     39 H7         -3.0842   -7.8523   -5.2115 H         1 <0>         0.1295
     40 H8         -1.2230   -6.3556   -4.6158 H         1 <0>         0.1279
     41 H9         -0.2943   -6.3906   -2.3368 H         1 <0>         0.1233
     42 H10         0.7828   -7.2504   -0.7649 H         1 <0>         0.0801
     43 H11        -0.3877   -6.0015   -0.2765 H         1 <0>         0.0760
     44 H12         0.6238   -8.2329    1.5420 H         1 <0>         0.1335
     45 H13         2.4167   -6.6198    0.9486 H         1 <0>         0.1440
     46 H14         1.3593   -5.2725    1.4335 H         1 <0>         0.1398
     47 H15         3.9804   -5.7663    2.6814 H         1 <0>         0.1309
     48 H16         2.7774   -4.5231    3.0981 H         1 <0>         0.1350
     49 H17         4.3146   -4.9484    4.9976 H         1 <0>         0.1201
     50 H18         2.6474   -5.4228    5.4060 H         1 <0>         0.0956
     51 H19         4.8800   -7.2894    4.4799 H         1 <0>         0.0972
     52 H20         3.2296   -9.0834    4.8348 H         1 <0>         0.1059
     53 H21         2.0016   -7.8841    5.3091 H         1 <0>         0.0995
     54 H22         1.7183   -8.5593    2.9391 H         1 <0>         0.1341
     55 H23         3.3841   -8.0388    2.5919 H         1 <0>         0.1295
     56 H24         5.0261   -6.4559    6.8489 H         1 <0>         0.1085
     57 H25         3.3921   -7.1000    7.1381 H         1 <0>         0.1048
     58 H26         3.9163  -12.5164    7.7835 H         1 <0>         0.1446
     59 H27         5.8848  -13.9898    7.9527 H         1 <0>         0.1475
     60 H28         8.1392  -13.0989    7.5656 H         1 <0>         0.1477
     61 H29         8.4600  -10.7208    7.0033 H         1 <0>         0.1451
     62 H30        -0.9581   -5.8625    2.0970 H         1 <0>         0.3893
     63 H31         1.2550   -6.3039    3.6236 H         1 <0>         0.4289
@<TRIPOS>BOND
     1    1    2 2
     2    1   33 1
     3    1   34 1
     4    2    3 1
     5    2   35 1
     6    3    4 1
     7    3   36 1
     8    3   37 1
     9    4    9 ar
    10    4    5 ar
    11    5    6 ar
    12    5   38 1
    13    6    7 ar
    14    6   39 1
    15    7    8 ar
    16    7   40 1
    17    8    9 ar
    18    8   41 1
    19    9   10 1
    20   10   11 1
    21   11   12 1
    22   11   42 1
    23   11   43 1
    24   12   13 1
    25   12   32 1
    26   12   44 1
    27   13   14 1
    28   13   45 1
    29   13   46 1
    30   14   19 1
    31   14   15 1
    32   14   63 1
    33   15   16 1
    34   15   47 1
    35   15   48 1
    36   16   17 1
    37   16   49 1
    38   16   50 1
    39   17   18 1
    40   17   20 1
    41   17   51 1
    42   18   19 1
    43   18   52 1
    44   18   53 1
    45   19   54 1
    46   19   55 1
    47   20   21 1
    48   20   56 1
    49   20   57 1
    50   21   30 am
    51   21   22 am
    52   22   23 2
    53   22   24 1
    54   24   29 ar
    55   24   25 ar
    56   25   26 ar
    57   25   58 1
    58   26   27 ar
    59   26   59 1
    60   27   28 ar
    61   27   60 1
    62   28   29 ar
    63   28   61 1
    64   29   30 1
    65   30   31 2
    66   32   62 1
@<TRIPOS>MOLECULE
CHEMBL350847
   51    54     0     0     0
SMALL
USER_CHARGES

@<TRIPOS>ATOM
      1 C1         -0.0167    1.3786    0.0115 C.ar      1 <0>        -0.1534
      2 C2          0.0020   -0.0039   -0.0109 C.ar      1 <0>        -0.0708
      3 C3          1.2063   -0.6797   -0.0269 C.ar      1 <0>        -0.1856
      4 C4          2.3998    0.0311   -0.0206 C.ar      1 <0>         0.1921
      5 C5          2.3775    1.4198    0.0019 C.ar      1 <0>        -0.1840
      6 C6          1.1696    2.0892    0.0179 C.ar      1 <0>        -0.0710
      7 N1          3.6196   -0.6492   -0.0363 N.pl3     1 <0>        -0.6439
      8 C7          4.8916    0.0813   -0.1488 C.3       1 <0>         0.0977
      9 C8          5.7188   -0.5539   -1.2714 C.3       1 <0>        -0.0229
     10 N2          5.8665   -1.9923   -1.0155 N.4       1 <0>        -0.5053
     11 C9          4.5538   -2.6477   -1.0727 C.3       1 <0>         0.0021
     12 C10         3.6691   -2.1159    0.0654 C.3       1 <0>         0.1094
     13 C11         4.7310   -4.1592   -0.9152 C.3       1 <0>         0.0982
     14 N3          5.6726   -4.6484   -1.9253 N.am      1 <0>        -0.7526
     15 C12         5.9839   -5.9587   -1.9779 C.2       1 <0>         0.5733
     16 O1          5.4833   -6.7347   -1.1871 O.2       1 <0>        -0.5046
     17 C13         6.9329   -6.4517   -2.9960 C.ar      1 <0>        -0.1627
     18 C14         7.5136   -5.5606   -3.9018 C.ar      1 <0>        -0.0571
     19 C15         8.3987   -6.0239   -4.8498 C.ar      1 <0>        -0.1454
     20 C16         8.7147   -7.3768   -4.9059 C.ar      1 <0>         0.1845
     21 C17         8.1383   -8.2667   -4.0064 C.ar      1 <0>        -0.1397
     22 C18         7.2568   -7.8096   -3.0521 C.ar      1 <0>        -0.0197
     23 N4          9.6140   -7.8438   -5.8700 N.pl3     1 <0>        -0.4243
     24 C19        10.0152   -9.1430   -6.0496 C.2       1 <0>        -0.0533
     25 C20        10.8810   -9.1446   -7.0805 C.2       1 <0>        -0.0096
     26 N5         11.0091   -7.8845   -7.5225 N.2       1 <0>        -0.4743
     27 C21        10.2511   -7.0968   -6.8098 C.2       1 <0>         0.1922
     28 H1         -0.9599    1.9046    0.0194 H         1 <0>         0.1276
     29 H2         -0.9263   -0.5559   -0.0154 H         1 <0>         0.1292
     30 H3          1.2202   -1.7594   -0.0440 H         1 <0>         0.1228
     31 H4          3.3036    1.9754    0.0072 H         1 <0>         0.1232
     32 H5          1.1515    3.1689    0.0354 H         1 <0>         0.1292
     33 H6          4.6940    1.1266   -0.3860 H         1 <0>         0.1298
     34 H7          5.4376    0.0130    0.7921 H         1 <0>         0.0906
     35 H8          5.2126   -0.4045   -2.2250 H         1 <0>         0.1370
     36 H9          6.7036   -0.0879   -1.3055 H         1 <0>         0.1481
     37 H10         6.4734   -2.3961   -1.7131 H         1 <0>         0.4230
     38 H11         4.0828   -2.4349   -2.0324 H         1 <0>         0.1522
     39 H12         4.0938   -2.4022    1.0275 H         1 <0>         0.0954
     40 H13         2.6629   -2.5238   -0.0302 H         1 <0>         0.1319
     41 H14         5.1193   -4.3778    0.0796 H         1 <0>         0.1025
     42 H15         3.7684   -4.6535   -1.0462 H         1 <0>         0.1204
     43 H16         6.0720   -4.0293   -2.5562 H         1 <0>         0.3928
     44 H17         7.2684   -4.5096   -3.8590 H         1 <0>         0.1282
     45 H18         8.8477   -5.3357   -5.5505 H         1 <0>         0.1429
     46 H19         8.3857   -9.3170   -4.0531 H         1 <0>         0.1454
     47 H20         6.8132   -8.5006   -2.3505 H         1 <0>         0.1509
     48 H21         9.6978  -10.0001   -5.4742 H         1 <0>         0.1837
     49 H22        11.3854  -10.0109   -7.4824 H         1 <0>         0.1814
     50 H23        10.1495   -6.0298   -6.9426 H         1 <0>         0.2117
     51 H24         6.2704   -2.1303   -0.1012 H         1 <0>         0.4305
@<TRIPOS>BOND
     1    1    6 ar
     2    1    2 ar
     3    1   28 1
     4    2    3 ar
     5    2   29 1
     6    3    4 ar
     7    3   30 1
     8    4    5 ar
     9    4    7 1
    10    5    6 ar
    11    5   31 1
    12    6   32 1
    13    7   12 1
    14    7    8 1
    15    8    9 1
    16    8   33 1
    17    8   34 1
    18    9   10 1
    19    9   35 1
    20    9   36 1
    21   10   11 1
    22   10   37 1
    23   10   51 1
    24   11   12 1
    25   11   13 1
    26   11   38 1
    27   12   39 1
    28   12   40 1
    29   13   14 1
    30   13   41 1
    31   13   42 1
    32   14   15 am
    33   14   43 1
    34   15   16 2
    35   15   17 1
    36   17   22 ar
    37   17   18 ar
    38   18   19 ar
    39   18   44 1
    40   19   20 ar
    41   19   45 1
    42   20   21 ar
    43   20   23 1
    44   21   22 ar
    45   21   46 1
    46   22   47 1
    47   23   27 1
    48   23   24 1
    49   24   25 2
    50   24   48 1
    51   25   26 1
    52   25   49 1
    53   26   27 2
    54   27   50 1
@<TRIPOS>MOLECULE
CHEMBL350847__1
   50    53     0     0     0
SMALL
USER_CHARGES

@<TRIPOS>ATOM
      1 C1         -0.0167    1.3786    0.0115 C.ar      1 <0>        -0.1792
      2 C2          0.0020   -0.0039   -0.0114 C.ar      1 <0>        -0.0707
      3 C3          1.2063   -0.6796   -0.0274 C.ar      1 <0>        -0.2008
      4 C4          2.3998    0.0311   -0.0206 C.ar      1 <0>         0.2178
      5 C5          2.3775    1.4198    0.0024 C.ar      1 <0>        -0.1995
      6 C6          1.1696    2.0892    0.0184 C.ar      1 <0>        -0.0710
      7 N1          3.6196   -0.6492   -0.0363 N.pl3     1 <0>        -0.6313
      8 C7          4.8906    0.0825   -0.1489 C.3       1 <0>         0.1241
      9 C8          5.7107   -0.5385   -1.2847 C.3       1 <0>         0.0423
     10 N2          5.8440   -1.9833   -1.0549 N.3       1 <0>        -0.6803
     11 C9          4.5356   -2.6505   -1.0847 C.3       1 <0>         0.0611
     12 C10         3.6676   -2.1156    0.0654 C.3       1 <0>         0.1337
     13 C11         4.7279   -4.1592   -0.9178 C.3       1 <0>         0.1258
     14 N3          5.6565   -4.6490   -1.9396 N.am      1 <0>        -0.7252
     15 C12         5.9776   -5.9571   -1.9868 C.2       1 <0>         0.5629
     16 O1          5.4967   -6.7306   -1.1814 O.2       1 <0>        -0.5274
     17 C13         6.9136   -6.4509   -3.0166 C.ar      1 <0>        -0.1450
     18 C14         7.4716   -5.5626   -3.9393 C.ar      1 <0>        -0.0561
     19 C15         8.3446   -6.0266   -4.8981 C.ar      1 <0>        -0.1423
     20 C16         8.6707   -7.3773   -4.9486 C.ar      1 <0>         0.1659
     21 C17         8.1169   -8.2643   -4.0322 C.ar      1 <0>        -0.1404
     22 C18         7.2476   -7.8065   -3.0670 C.ar      1 <0>        -0.0276
     23 N4          9.5576   -7.8449   -5.9238 N.pl3     1 <0>        -0.4175
     24 C19         9.9665   -9.1422   -6.0995 C.2       1 <0>        -0.0527
     25 C20        10.8148   -9.1454   -7.1447 C.2       1 <0>        -0.0170
     26 N5         10.9251   -7.8879   -7.5991 N.2       1 <0>        -0.4806
     27 C21        10.1727   -7.1006   -6.8802 C.2       1 <0>         0.1919
     28 H1         -0.9599    1.9046    0.0194 H         1 <0>         0.1182
     29 H2         -0.9263   -0.5559   -0.0163 H         1 <0>         0.1208
     30 H3          1.2202   -1.7594   -0.0449 H         1 <0>         0.1212
     31 H4          3.3036    1.9754    0.0081 H         1 <0>         0.1212
     32 H5          1.1515    3.1689    0.0362 H         1 <0>         0.1207
     33 H6          4.6912    1.1306   -0.3720 H         1 <0>         0.0874
     34 H7          5.4430    0.0031    0.7874 H         1 <0>         0.0708
     35 H8          5.2049   -0.3664   -2.2348 H         1 <0>         0.0378
     36 H9          6.7000   -0.0816   -1.3109 H         1 <0>         0.0896
     37 H10         6.4769   -2.3986   -1.7220 H         1 <0>         0.3401
     38 H11         4.0461   -2.4490   -2.0376 H         1 <0>         0.0527
     39 H12         4.1046   -2.4022    1.0219 H         1 <0>         0.0749
     40 H13         2.6592   -2.5215   -0.0158 H         1 <0>         0.0901
     41 H14         5.1345   -4.3663    0.0720 H         1 <0>         0.0841
     42 H15         3.7673   -4.6623   -1.0286 H         1 <0>         0.0796
     43 H16         6.0401   -4.0319   -2.5822 H         1 <0>         0.3954
     44 H17         7.2185   -4.5133   -3.9009 H         1 <0>         0.1344
     45 H18         8.7761   -5.3405   -5.6120 H         1 <0>         0.1402
     46 H19         8.3721   -9.3128   -4.0746 H         1 <0>         0.1406
     47 H20         6.8216   -8.4953   -2.3525 H         1 <0>         0.1490
     48 H21         9.6658   -9.9971   -5.5119 H         1 <0>         0.1812
     49 H22        11.3196  -10.0108   -7.5480 H         1 <0>         0.1780
     50 H23        10.0601   -6.0356   -7.0200 H         1 <0>         0.2109
@<TRIPOS>BOND
     1    1    6 ar
     2    1    2 ar
     3    1   28 1
     4    2    3 ar
     5    2   29 1
     6    3    4 ar
     7    3   30 1
     8    4    5 ar
     9    4    7 1
    10    5    6 ar
    11    5   31 1
    12    6   32 1
    13    7   12 1
    14    7    8 1
    15    8    9 1
    16    8   33 1
    17    8   34 1
    18    9   10 1
    19    9   35 1
    20    9   36 1
    21   10   11 1
    22   10   37 1
    23   11   12 1
    24   11   13 1
    25   11   38 1
    26   12   39 1
    27   12   40 1
    28   13   14 1
    29   13   41 1
    30   13   42 1
    31   14   15 am
    32   14   43 1
    33   15   16 2
    34   15   17 1
    35   17   22 ar
    36   17   18 ar
    37   18   19 ar
    38   18   44 1
    39   19   20 ar
    40   19   45 1
    41   20   21 ar
    42   20   23 1
    43   21   22 ar
    44   21   46 1
    45   22   47 1
    46   23   27 1
    47   23   24 1
    48   24   25 2
    49   24   48 1
    50   25   26 1
    51   25   49 1
    52   26   27 2
    53   27   50 1
@<TRIPOS>MOLECULE
CHEMBL350847__2
   51    54     0     0     0
SMALL
USER_CHARGES

@<TRIPOS>ATOM
      1 C1         -0.0167    1.3786    0.0115 C.ar      1 <0>        -0.1534
      2 C2          0.0020   -0.0039   -0.0107 C.ar      1 <0>        -0.0707
      3 C3          1.2063   -0.6797   -0.0268 C.ar      1 <0>        -0.1847
      4 C4          2.3998    0.0311   -0.0206 C.ar      1 <0>         0.1921
      5 C5          2.3775    1.4198    0.0017 C.ar      1 <0>        -0.1849
      6 C6          1.1696    2.0892    0.0177 C.ar      1 <0>        -0.0712
      7 N1          3.6196   -0.6492   -0.0363 N.pl3     1 <0>        -0.6434
      8 C7          4.8916    0.0813   -0.1488 C.3       1 <0>         0.0970
      9 C8          5.8302   -0.4041    0.9608 C.3       1 <0>        -0.0234
     10 N2          5.9614   -1.8647    0.8855 N.4       1 <0>        -0.5053
     11 C9          4.6652   -2.4979    1.1594 C.3       1 <0>         0.0029
     12 C10         3.6691   -2.1159    0.0654 C.3       1 <0>         0.1086
     13 C11         4.8360   -4.0181    1.1880 C.3       1 <0>         0.0987
     14 N3          5.8763   -4.3745    2.1559 N.am      1 <0>        -0.7525
     15 C12         6.2000   -5.6681    2.3516 C.2       1 <0>         0.5733
     16 O1          5.6286   -6.5393    1.7249 O.2       1 <0>        -0.5046
     17 C13         7.2485   -6.0274    3.3272 C.ar      1 <0>        -0.1628
     18 C14         7.9021   -5.0281    4.0525 C.ar      1 <0>        -0.0571
     19 C15         8.8793   -5.3669    4.9619 C.ar      1 <0>        -0.1454
     20 C16         9.2156   -6.7016    5.1586 C.ar      1 <0>         0.1846
     21 C17         8.5676   -7.6988    4.4383 C.ar      1 <0>        -0.1397
     22 C18         7.5854   -7.3678    3.5313 C.ar      1 <0>        -0.0196
     23 N4         10.2085   -7.0420    6.0831 N.pl3     1 <0>        -0.4243
     24 C19        10.6485   -8.3070    6.3787 C.2       1 <0>        -0.0532
     25 C20        11.6055   -8.1776    7.3166 C.2       1 <0>        -0.0096
     26 N5         11.7506   -6.8723    7.5903 N.2       1 <0>        -0.4744
     27 C21        10.9240   -6.1813    6.8541 C.2       1 <0>         0.1923
     28 H1         -0.9599    1.9046    0.0194 H         1 <0>         0.1276
     29 H2         -0.9263   -0.5559   -0.0152 H         1 <0>         0.1293
     30 H3          1.2202   -1.7594   -0.0437 H         1 <0>         0.1232
     31 H4          3.3036    1.9754    0.0069 H         1 <0>         0.1230
     32 H5          1.1515    3.1689    0.0351 H         1 <0>         0.1291
     33 H6          5.3421   -0.1154   -1.1217 H         1 <0>         0.0911
     34 H7          4.7115    1.1502   -0.0347 H         1 <0>         0.1302
     35 H8          6.8104    0.0558    0.8347 H         1 <0>         0.1482
     36 H9          5.4201   -0.1256    1.9315 H         1 <0>         0.1370
     37 H10         6.2736   -2.1260   -0.0377 H         1 <0>         0.4306
     38 H11         4.2903   -2.1560    2.1241 H         1 <0>         0.1519
     39 H12         2.6812   -2.4989    0.3210 H         1 <0>         0.1316
     40 H13         3.9941   -2.5382   -0.8855 H         1 <0>         0.0943
     41 H14         3.8944   -4.4841    1.4785 H         1 <0>         0.1205
     42 H15         5.1252   -4.3699    0.1977 H         1 <0>         0.1026
     43 H16         6.3322   -3.6795    2.6560 H         1 <0>         0.3929
     44 H17         7.6417   -3.9911    3.8999 H         1 <0>         0.1283
     45 H18         9.3852   -4.5949    5.5227 H         1 <0>         0.1429
     46 H19         8.8316   -8.7345    4.5934 H         1 <0>         0.1454
     47 H20         7.0791   -8.1432    2.9756 H         1 <0>         0.1509
     48 H21        10.2948   -9.2298    5.9430 H         1 <0>         0.1837
     49 H22        12.1607   -8.9852    7.7704 H         1 <0>         0.1814
     50 H23        10.8231   -5.1060    6.8590 H         1 <0>         0.2117
     51 H24         6.6371   -2.1760    1.5671 H         1 <0>         0.4232
@<TRIPOS>BOND
     1    1    6 ar
     2    1    2 ar
     3    1   28 1
     4    2    3 ar
     5    2   29 1
     6    3    4 ar
     7    3   30 1
     8    4    5 ar
     9    4    7 1
    10    5    6 ar
    11    5   31 1
    12    6   32 1
    13    7   12 1
    14    7    8 1
    15    8    9 1
    16    8   33 1
    17    8   34 1
    18    9   10 1
    19    9   35 1
    20    9   36 1
    21   10   11 1
    22   10   37 1
    23   10   51 1
    24   11   12 1
    25   11   13 1
    26   11   38 1
    27   12   39 1
    28   12   40 1
    29   13   14 1
    30   13   41 1
    31   13   42 1
    32   14   15 am
    33   14   43 1
    34   15   16 2
    35   15   17 1
    36   17   22 ar
    37   17   18 ar
    38   18   19 ar
    39   18   44 1
    40   19   20 ar
    41   19   45 1
    42   20   21 ar
    43   20   23 1
    44   21   22 ar
    45   21   46 1
    46   22   47 1
    47   23   27 1
    48   23   24 1
    49   24   25 2
    50   24   48 1
    51   25   26 1
    52   25   49 1
    53   26   27 2
    54   27   50 1
@<TRIPOS>MOLECULE
CHEMBL350847__3
   50    53     0     0     0
SMALL
USER_CHARGES

@<TRIPOS>ATOM
      1 C1         -0.0167    1.3786    0.0096 C.ar      1 <0>        -0.1776
      2 C2          1.1696    2.0893    0.0168 C.ar      1 <0>        -0.0714
      3 C3          2.3775    1.4198    0.0017 C.ar      1 <0>        -0.1987
      4 C4          2.3998    0.0311   -0.0206 C.ar      1 <0>         0.2177
      5 C5          1.2063   -0.6796   -0.0277 C.ar      1 <0>        -0.1989
      6 C6          0.0020   -0.0039   -0.0126 C.ar      1 <0>        -0.0709
      7 N1          3.6196   -0.6492   -0.0363 N.pl3     1 <0>        -0.6310
      8 C7          4.8906    0.0825   -0.1489 C.3       1 <0>         0.0808
      9 C8          5.8239   -0.3878    0.9718 C.3       1 <0>         0.0435
     10 N2          5.9432   -1.8512    0.9235 N.3       1 <0>        -0.6797
     11 C9          4.6488   -2.4998    1.1718 C.3       1 <0>         0.0599
     12 C10         3.6676   -2.1156    0.0654 C.3       1 <0>         0.0925
     13 C11         4.8335   -4.0185    1.1882 C.3       1 <0>         0.1297
     14 N3          5.8625   -4.3747    2.1682 N.am      1 <0>        -0.7129
     15 C12         6.1955   -5.6671    2.3562 C.2       1 <0>         0.5590
     16 O1          5.6419   -6.5373    1.7125 O.2       1 <0>        -0.5363
     17 C13         7.2326   -6.0261    3.3440 C.ar      1 <0>        -0.1436
     18 C14         7.8657   -5.0279    4.0888 C.ar      1 <0>        -0.0537
     19 C15         8.8323   -5.3665    5.0096 C.ar      1 <0>        -0.1427
     20 C16         9.1783   -6.6998    5.1985 C.ar      1 <0>         0.1639
     21 C17         8.5506   -7.6959    4.4587 C.ar      1 <0>        -0.1418
     22 C18         7.5791   -7.3652    3.5403 C.ar      1 <0>        -0.0294
     23 N4         10.1603   -7.0399    6.1345 N.pl3     1 <0>        -0.4169
     24 C19        10.6078   -8.3036    6.4245 C.2       1 <0>        -0.0529
     25 C20        11.5494   -8.1745    7.3779 C.2       1 <0>        -0.0178
     26 N5         11.6779   -6.8706    7.6665 N.2       1 <0>        -0.4814
     27 C21        10.8559   -6.1802    6.9246 C.2       1 <0>         0.1920
     28 H1         -0.9598    1.9045    0.0260 H         1 <0>         0.1188
     29 H2          1.1515    3.1690    0.0338 H         1 <0>         0.1212
     30 H3          3.3036    1.9754    0.0070 H         1 <0>         0.1212
     31 H4          1.2202   -1.7594   -0.0454 H         1 <0>         0.1210
     32 H5         -0.9263   -0.5558   -0.0182 H         1 <0>         0.1214
     33 H6          5.3474   -0.1241   -1.1168 H         1 <0>         0.0628
     34 H7          4.7074    1.1522   -0.0481 H         1 <0>         0.0903
     35 H8          6.8078    0.0619    0.8384 H         1 <0>         0.0907
     36 H9          5.4142   -0.0879    1.9362 H         1 <0>         0.0796
     37 H10         6.3364   -2.1531    0.0447 H         1 <0>         0.3458
     38 H11         4.2554   -2.1704    2.1334 H         1 <0>         0.0944
     39 H12         2.6762   -2.4985    0.3078 H         1 <0>         0.0921
     40 H13         4.0046   -2.5375   -0.8814 H         1 <0>         0.0660
     41 H14         3.8922   -4.4961    1.4598 H         1 <0>         0.0785
     42 H15         5.1409   -4.3578    0.1990 H         1 <0>         0.0720
     43 H16         6.3042   -3.6804    2.6818 H         1 <0>         0.4081
     44 H17         7.5978   -3.9919    3.9424 H         1 <0>         0.1390
     45 H18         9.3224   -4.5953    5.5854 H         1 <0>         0.1397
     46 H19         8.8221   -8.7306    4.6078 H         1 <0>         0.1394
     47 H20         7.0886   -8.1398    2.9695 H         1 <0>         0.1477
     48 H21        10.2695   -9.2253    5.9745 H         1 <0>         0.1807
     49 H22        12.1053   -8.9813    7.8322 H         1 <0>         0.1775
     50 H23        10.7448   -5.1060    6.9383 H         1 <0>         0.2110
@<TRIPOS>BOND
     1    1    6 ar
     2    1    2 ar
     3    1   28 1
     4    2    3 ar
     5    2   29 1
     6    3    4 ar
     7    3   30 1
     8    4    5 ar
     9    4    7 1
    10    5    6 ar
    11    5   31 1
    12    6   32 1
    13    7   12 1
    14    7    8 1
    15    8    9 1
    16    8   33 1
    17    8   34 1
    18    9   10 1
    19    9   35 1
    20    9   36 1
    21   10   11 1
    22   10   37 1
    23   11   12 1
    24   11   13 1
    25   11   38 1
    26   12   39 1
    27   12   40 1
    28   13   14 1
    29   13   41 1
    30   13   42 1
    31   14   15 am
    32   14   43 1
    33   15   16 2
    34   15   17 1
    35   17   22 ar
    36   17   18 ar
    37   18   19 ar
    38   18   44 1
    39   19   20 ar
    40   19   45 1
    41   20   21 ar
    42   20   23 1
    43   21   22 ar
    44   21   46 1
    45   22   47 1
    46   23   27 1
    47   23   24 1
    48   24   25 2
    49   24   48 1
    50   25   26 1
    51   25   49 1
    52   26   27 2
    53   27   50 1
@<TRIPOS>MOLECULE
CHEMBL1085013
   68    72     0     0     0
SMALL
USER_CHARGES

@<TRIPOS>ATOM
      1 C1         -0.0187    1.5258    0.0104 C.3       1 <0>        -0.1456
      2 C2          0.0021   -0.0041    0.0020 C.3       1 <0>        -0.0508
      3 C3          0.7421   -0.5109    1.2415 C.3       1 <0>        -0.1451
      4 C4         -1.4117   -0.5257    0.0127 C.ar      1 <0>        -0.0969
      5 C5         -2.2592   -0.2048    1.0557 C.ar      1 <0>        -0.0767
      6 C6         -3.5561   -0.6834    1.0663 C.ar      1 <0>        -0.1437
      7 C7         -4.0087   -1.4838    0.0335 C.ar      1 <0>        -0.0851
      8 C8         -3.1656   -1.8071   -1.0117 C.ar      1 <0>        -0.2059
      9 C9         -1.8651   -1.3237   -1.0273 C.ar      1 <0>         0.1179
     10 O1         -1.0353   -1.6358   -2.0574 O.3       1 <0>        -0.2990
     11 C10        -1.5698   -2.4619   -3.0937 C.3       1 <0>         0.0302
     12 C11        -0.4971   -2.7036   -4.1575 C.3       1 <0>         0.0858
     13 C12        -1.1042   -3.4825   -5.3261 C.3       1 <0>        -0.0432
     14 N1         -0.0743   -3.7146   -6.3476 N.4       1 <0>        -0.3794
     15 C13         0.3548   -2.4279   -6.9088 C.3       1 <0>        -0.0044
     16 C14         1.4846   -2.6574   -7.9150 C.3       1 <0>        -0.1647
     17 C15         0.9813   -3.5648   -9.0412 C.3       1 <0>         0.1183
     18 C16         0.4674   -4.8748   -8.4368 C.3       1 <0>        -0.1673
     19 C17        -0.6247   -4.5632   -7.4113 C.3       1 <0>         0.0025
     20 N2          2.0793   -3.8504   -9.9680 N.am      1 <0>        -0.5584
     21 C18         3.1768   -4.4748   -9.5001 C.2       1 <0>         0.5835
     22 O2          3.2399   -4.7890   -8.3269 O.2       1 <0>        -0.5018
     23 C19         4.2991   -4.7793  -10.3999 C.ar      1 <0>        -0.1792
     24 C20         5.4478   -5.4207   -9.9605 C.ar      1 <0>         0.0078
     25 C21         6.4826   -5.6865  -10.8496 C.ar      1 <0>        -0.1441
     26 C22         6.4043   -5.3306  -12.1655 C.ar      1 <0>        -0.0335
     27 C23         5.2573   -4.6789  -12.6512 C.ar      1 <0>        -0.0805
     28 C24         4.2002   -4.4035  -11.7588 C.ar      1 <0>         0.0136
     29 C25         3.0340   -3.7491  -12.2163 C.ar      1 <0>        -0.1765
     30 C26         2.9465   -3.3842  -13.5517 C.ar      1 <0>         0.0080
     31 C27         3.9948   -3.6615  -14.4213 C.ar      1 <0>        -0.1416
     32 C28         5.1286   -4.2929  -13.9968 C.ar      1 <0>        -0.0356
     33 C29         1.9515   -3.4838  -11.2573 C.2       1 <0>         0.5763
     34 O3          0.9369   -2.9262  -11.6297 O.2       1 <0>        -0.4884
     35 O4          0.5761   -3.4568   -3.5893 O.3       1 <0>        -0.5412
     36 H1          1.0039    1.9031    0.0027 H         1 <0>         0.0605
     37 H2         -0.5459    1.8868   -0.8726 H         1 <0>         0.0536
     38 H3         -0.5289    1.8773    0.9072 H         1 <0>         0.0581
     39 H4          0.5123   -0.3556   -0.8948 H         1 <0>         0.0825
     40 H5          0.7568   -1.6008    1.2356 H         1 <0>         0.0543
     41 H6          1.7647   -0.1336    1.2338 H         1 <0>         0.0605
     42 H7          0.2319   -0.1594    2.1383 H         1 <0>         0.0576
     43 H8         -1.9081    0.4202    1.8635 H         1 <0>         0.1325
     44 H9         -4.2168   -0.4320    1.8828 H         1 <0>         0.1284
     45 H10        -5.0222   -1.8568    0.0443 H         1 <0>         0.1272
     46 H11        -3.5195   -2.4323   -1.8181 H         1 <0>         0.1230
     47 H12        -1.8844   -3.4163   -2.6715 H         1 <0>         0.0758
     48 H13        -2.4271   -1.9654   -3.5483 H         1 <0>         0.0803
     49 H14        -0.1190   -1.7463   -4.5163 H         1 <0>         0.1341
     50 H15        -1.4822   -4.4398   -4.9673 H         1 <0>         0.1401
     51 H16        -1.9228   -2.9080   -5.7595 H         1 <0>         0.1454
     52 H17        -0.4874   -1.9521   -7.4111 H         1 <0>         0.1335
     53 H18         0.7097   -1.7820   -6.1057 H         1 <0>         0.1386
     54 H19         1.8005   -1.7011   -8.3318 H         1 <0>         0.1157
     55 H20         2.3275   -3.1329   -7.4136 H         1 <0>         0.1143
     56 H21         0.1717   -3.0677   -9.5756 H         1 <0>         0.1284
     57 H22         0.0563   -5.5034   -9.2267 H         1 <0>         0.1159
     58 H23         1.2893   -5.3963   -7.9463 H         1 <0>         0.1146
     59 H24        -0.9929   -5.4937   -6.9792 H         1 <0>         0.1376
     60 H25        -1.4460   -4.0419   -7.9029 H         1 <0>         0.1332
     61 H26         5.5386   -5.7139   -8.9250 H         1 <0>         0.1470
     62 H27         7.3702   -6.1863  -10.4909 H         1 <0>         0.1443
     63 H28         7.2242   -5.5497  -12.8336 H         1 <0>         0.1464
     64 H29         2.0618   -2.8839  -13.9166 H         1 <0>         0.1481
     65 H30         3.9103   -3.3706  -15.4579 H         1 <0>         0.1450
     66 H31         5.9273   -4.4952  -14.6951 H         1 <0>         0.1466
     67 H32         0.3120   -4.3224   -3.2487 H         1 <0>         0.3896
     68 H33         0.7178   -4.1763   -5.9263 H         1 <0>         0.4317
@<TRIPOS>BOND
     1    1    2 1
     2    1   36 1
     3    1   37 1
     4    1   38 1
     5    2    3 1
     6    2    4 1
     7    2   39 1
     8    3   40 1
     9    3   41 1
    10    3   42 1
    11    4    9 ar
    12    4    5 ar
    13    5    6 ar
    14    5   43 1
    15    6    7 ar
    16    6   44 1
    17    7    8 ar
    18    7   45 1
    19    8    9 ar
    20    8   46 1
    21    9   10 1
    22   10   11 1
    23   11   12 1
    24   11   47 1
    25   11   48 1
    26   12   13 1
    27   12   35 1
    28   12   49 1
    29   13   14 1
    30   13   50 1
    31   13   51 1
    32   14   19 1
    33   14   15 1
    34   14   68 1
    35   15   16 1
    36   15   52 1
    37   15   53 1
    38   16   17 1
    39   16   54 1
    40   16   55 1
    41   17   18 1
    42   17   20 1
    43   17   56 1
    44   18   19 1
    45   18   57 1
    46   18   58 1
    47   19   59 1
    48   19   60 1
    49   20   33 am
    50   20   21 am
    51   21   22 2
    52   21   23 1
    53   23   28 ar
    54   23   24 ar
    55   24   25 ar
    56   24   61 1
    57   25   26 ar
    58   25   62 1
    59   26   27 ar
    60   26   63 1
    61   27   32 ar
    62   27   28 ar
    63   28   29 ar
    64   29   30 ar
    65   29   33 1
    66   30   31 ar
    67   30   64 1
    68   31   32 ar
    69   31   65 1
    70   32   66 1
    71   33   34 2
    72   35   67 1
@<TRIPOS>MOLECULE
CHEMBL1085013__1
   68    72     0     0     0
SMALL
USER_CHARGES

@<TRIPOS>ATOM
      1 C1         -3.2725   -8.7141   -0.1962 C.3       1 <0>        -0.1452
      2 C2         -3.8158   -8.2153   -1.5366 C.3       1 <0>        -0.0508
      3 C3         -4.8115   -9.2342   -2.0944 C.3       1 <0>        -0.1455
      4 C4         -4.5096   -6.8925   -1.3366 C.ar      1 <0>        -0.0969
      5 C5         -5.5890   -6.8007   -0.4791 C.ar      1 <0>        -0.0767
      6 C6         -6.2262   -5.5876   -0.2955 C.ar      1 <0>        -0.1437
      7 C7         -5.7850   -4.4633   -0.9689 C.ar      1 <0>        -0.0851
      8 C8         -4.7061   -4.5498   -1.8269 C.ar      1 <0>        -0.2060
      9 C9         -4.0615   -5.7650   -2.0089 C.ar      1 <0>         0.1179
     10 O1         -2.9962   -5.8515   -2.8483 O.3       1 <0>        -0.2989
     11 C10        -2.5900   -4.6501   -3.5069 C.3       1 <0>         0.0302
     12 C11        -1.3849   -4.9423   -4.4031 C.3       1 <0>         0.0859
     13 C12        -1.0275   -3.6875   -5.2023 C.3       1 <0>        -0.0433
     14 N1          0.1201   -3.9724   -6.0739 N.4       1 <0>        -0.3796
     15 C13         0.5589   -2.7316   -6.7239 C.3       1 <0>         0.0024
     16 C14         1.8038   -3.0072   -7.5699 C.3       1 <0>        -0.1664
     17 C15         1.4680   -4.0531   -8.6368 C.3       1 <0>         0.1184
     18 C16         0.9412   -5.3168   -7.9508 C.3       1 <0>        -0.1658
     19 C17        -0.2718   -4.9557   -7.0907 C.3       1 <0>        -0.0040
     20 N2          2.6747   -4.3777   -9.4015 N.am      1 <0>        -0.5585
     21 C18         3.7358   -4.8917   -8.7511 C.2       1 <0>         0.5834
     22 O2          3.6777   -5.0767   -7.5505 O.2       1 <0>        -0.5018
     23 C19         4.9642   -5.2310   -9.4844 C.ar      1 <0>        -0.1792
     24 C20         6.0801   -5.7621   -8.8547 C.ar      1 <0>         0.0078
     25 C21         7.2188   -6.0663   -9.5913 C.ar      1 <0>        -0.1441
     26 C22         7.2765   -5.8558  -10.9391 C.ar      1 <0>        -0.0335
     27 C23         6.1672   -5.3190  -11.6156 C.ar      1 <0>        -0.0805
     28 C24         5.0055   -5.0061  -10.8792 C.ar      1 <0>         0.0135
     29 C25         3.8738   -4.4648  -11.5302 C.ar      1 <0>        -0.1765
     30 C26         3.9242   -4.2478  -12.8993 C.ar      1 <0>         0.0079
     31 C27         5.0746   -4.5607  -13.6139 C.ar      1 <0>        -0.1416
     32 C28         6.1770   -5.0843  -13.0016 C.ar      1 <0>        -0.0356
     33 C29         2.6797   -4.1561  -10.7298 C.2       1 <0>         0.5764
     34 O3          1.6927   -3.6942  -11.2695 O.2       1 <0>        -0.4883
     35 O4         -0.2710   -5.3249   -3.5938 O.3       1 <0>        -0.5411
     36 H1         -2.7707   -9.6708   -0.3409 H         1 <0>         0.0605
     37 H2         -2.5631   -7.9881    0.2012 H         1 <0>         0.0544
     38 H3         -4.0967   -8.8387    0.5062 H         1 <0>         0.0577
     39 H4         -2.9916   -8.0907   -2.2390 H         1 <0>         0.0825
     40 H5         -5.1986   -8.8789   -3.0493 H         1 <0>         0.0536
     41 H6         -4.3097  -10.1910   -2.2390 H         1 <0>         0.0605
     42 H7         -5.6357   -9.3588   -1.3920 H         1 <0>         0.0580
     43 H8         -5.9355   -7.6773    0.0480 H         1 <0>         0.1325
     44 H9         -7.0702   -5.5181    0.3747 H         1 <0>         0.1284
     45 H10        -6.2847   -3.5169   -0.8241 H         1 <0>         0.1272
     46 H11        -4.3619   -3.6714   -2.3527 H         1 <0>         0.1230
     47 H12        -3.4123   -4.2733   -4.1151 H         1 <0>         0.0803
     48 H13        -2.3164   -3.9023   -2.7625 H         1 <0>         0.0759
     49 H14        -1.6306   -5.7525   -5.0896 H         1 <0>         0.1338
     50 H15        -1.8810   -3.3892   -5.8112 H         1 <0>         0.1454
     51 H16        -0.7710   -2.8804   -4.5160 H         1 <0>         0.1402
     52 H17        -0.2391   -2.3556   -7.3642 H         1 <0>         0.1333
     53 H18         0.7944   -1.9872   -5.9634 H         1 <0>         0.1376
     54 H19         2.1269   -2.0851   -8.0531 H         1 <0>         0.1161
     55 H20         2.6025   -3.3830   -6.9304 H         1 <0>         0.1135
     56 H21         0.7053   -3.6577   -9.3076 H         1 <0>         0.1285
     57 H22         0.6477   -6.0457   -8.7062 H         1 <0>         0.1156
     58 H23         1.7220   -5.7406   -7.3192 H         1 <0>         0.1155
     59 H24        -0.6496   -5.8532   -6.6009 H         1 <0>         0.1382
     60 H25        -1.0521   -4.5323   -7.7232 H         1 <0>         0.1336
     61 H26         6.0642   -5.9394   -7.7894 H         1 <0>         0.1470
     62 H27         8.0791   -6.4790   -9.0852 H         1 <0>         0.1443
     63 H28         8.1750   -6.1014  -11.4858 H         1 <0>         0.1464
     64 H29         3.0675   -3.8351  -13.4113 H         1 <0>         0.1481
     65 H30         5.0970   -4.3854  -14.6793 H         1 <0>         0.1450
     66 H31         7.0572   -5.3175  -13.5823 H         1 <0>         0.1466
     67 H32         0.0033   -4.6501   -2.9579 H         1 <0>         0.3897
     68 H33         0.8769   -4.3456   -5.5206 H         1 <0>         0.4319
@<TRIPOS>BOND
     1    1    2 1
     2    1   36 1
     3    1   37 1
     4    1   38 1
     5    2    3 1
     6    2    4 1
     7    2   39 1
     8    3   40 1
     9    3   41 1
    10    3   42 1
    11    4    9 ar
    12    4    5 ar
    13    5    6 ar
    14    5   43 1
    15    6    7 ar
    16    6   44 1
    17    7    8 ar
    18    7   45 1
    19    8    9 ar
    20    8   46 1
    21    9   10 1
    22   10   11 1
    23   11   12 1
    24   11   47 1
    25   11   48 1
    26   12   13 1
    27   12   35 1
    28   12   49 1
    29   13   14 1
    30   13   50 1
    31   13   51 1
    32   14   19 1
    33   14   15 1
    34   14   68 1
    35   15   16 1
    36   15   52 1
    37   15   53 1
    38   16   17 1
    39   16   54 1
    40   16   55 1
    41   17   18 1
    42   17   20 1
    43   17   56 1
    44   18   19 1
    45   18   57 1
    46   18   58 1
    47   19   59 1
    48   19   60 1
    49   20   33 am
    50   20   21 am
    51   21   22 2
    52   21   23 1
    53   23   28 ar
    54   23   24 ar
    55   24   25 ar
    56   24   61 1
    57   25   26 ar
    58   25   62 1
    59   26   27 ar
    60   26   63 1
    61   27   32 ar
    62   27   28 ar
    63   28   29 ar
    64   29   30 ar
    65   29   33 1
    66   30   31 ar
    67   30   64 1
    68   31   32 ar
    69   31   65 1
    70   32   66 1
    71   33   34 2
    72   35   67 1
@<TRIPOS>MOLECULE
CHEMBL506518
   86    88     0     0     0
SMALL
USER_CHARGES

@<TRIPOS>ATOM
      1 C1         -0.0167    1.3779    0.0096 C.ar      1 <0>        -0.1347
      2 C2          1.1711    2.0854    0.0021 C.ar      1 <0>        -0.0614
      3 C3          2.3773    1.4107   -0.0130 C.ar      1 <0>        -0.1024
      4 C4          2.3960    0.0283   -0.0201 C.ar      1 <0>        -0.0187
      5 C5          1.2086   -0.6790   -0.0117 C.ar      1 <0>        -0.6718
      6 C6          0.0021   -0.0041    0.0020 C.ar      1 <0>        -0.0237
      7 S1          1.2325   -2.4408   -0.0219 S.o2      1 <0>         2.6882
      8 O1         -0.0129   -2.8607   -0.5621 O.2       1 <0>        -0.9517
      9 O2          2.4774   -2.8268   -0.5880 O.2       1 <0>        -0.9533
     10 N1          1.2558   -2.9393    1.5571 N.pl3     1 <0>        -0.9955
     11 C7          2.5303   -3.1416    2.2596 C.3       1 <0>         0.1187
     12 C8          2.5128   -2.3273    3.5570 C.3       1 <0>        -0.1354
     13 C9          1.2768   -2.7062    4.3759 C.3       1 <0>        -0.1184
     14 C10         0.0132   -2.3729    3.5794 C.3       1 <0>        -0.1366
     15 C11         0.0022   -3.1819    2.2841 C.3       1 <0>         0.1182
     16 C12         3.6720    2.1819   -0.0222 C.3       1 <0>        -0.0818
     17 C13         4.1244    2.4362    1.4171 C.3       1 <0>        -0.1117
     18 C14         5.4389    3.2191    1.4077 C.3       1 <0>        -0.1196
     19 C15         5.8913    3.4734    2.8470 C.3       1 <0>         0.0631
     20 O3          7.1190    4.2047    2.8382 O.3       1 <0>        -0.3898
     21 C16         7.6312    4.4960    4.1401 C.3       1 <0>         0.0611
     22 C17         8.9404    5.2771    4.0099 C.3       1 <0>        -0.1207
     23 C18         9.4889    5.5890    5.4038 C.3       1 <0>        -0.1184
     24 C19        10.7980    6.3701    5.2736 C.3       1 <0>        -0.1169
     25 C20        11.3465    6.6820    6.6675 C.3       1 <0>        -0.1501
     26 C21        12.6557    7.4631    6.5373 C.3       1 <0>        -0.0105
     27 N2         13.1823    7.7626    7.8756 N.4       1 <0>        -0.5057
     28 C22        14.4392    8.5126    7.7506 C.3       1 <0>        -0.0426
     29 C23        14.9877    8.8245    9.1445 C.3       1 <0>         0.1378
     30 H1         15.1721    7.8928    9.6792 H         1 <0>         0.1325
     31 C24        16.2772    9.5938    9.0163 C.ar      1 <0>        -0.1555
     32 C25        16.2491   10.9686    8.8700 C.ar      1 <0>        -0.0897
     33 C26        17.4295   11.6760    8.7519 C.ar      1 <0>        -0.1374
     34 C27        18.6443   11.0061    8.7805 C.ar      1 <0>         0.1337
     35 C28        18.6698    9.6270    8.9278 C.ar      1 <0>        -0.1102
     36 C29        17.4863    8.9246    9.0508 C.ar      1 <0>        -0.0623
     37 C30        19.9873    8.8962    8.9593 C.3       1 <0>         0.1174
     38 O4         19.7515    7.4958    9.1182 O.3       1 <0>        -0.5757
     39 O5         19.8071   11.6998    8.6641 O.3       1 <0>        -0.4942
     40 O6         14.0355    9.6078    9.8668 O.3       1 <0>        -0.5480
     41 H2         -0.9591    1.9051    0.0259 H         1 <0>         0.1342
     42 H3          1.1565    3.1653    0.0076 H         1 <0>         0.1303
     43 H4          3.3385   -0.4989   -0.0326 H         1 <0>         0.1374
     44 H5         -0.9258   -0.5567    0.0079 H         1 <0>         0.1392
     45 H6          2.6548   -4.1989    2.4935 H         1 <0>         0.0778
     46 H7          3.3528   -2.8056    1.6283 H         1 <0>         0.0895
     47 H8          3.4119   -2.5433    4.1342 H         1 <0>         0.0754
     48 H9          2.4795   -1.2641    3.3188 H         1 <0>         0.0654
     49 H10         1.2982   -3.7743    4.5927 H         1 <0>         0.0668
     50 H11         1.2749   -2.1461    5.3110 H         1 <0>         0.0647
     51 H12        -0.8669   -2.6213    4.1726 H         1 <0>         0.0779
     52 H13         0.0034   -1.3093    3.3410 H         1 <0>         0.0659
     53 H14        -0.8427   -2.8724    1.6689 H         1 <0>         0.0911
     54 H15        -0.0840   -4.2425    2.5200 H         1 <0>         0.0778
     55 H16         4.4344    1.6057   -0.5463 H         1 <0>         0.0792
     56 H17         3.5236    3.1349   -0.5302 H         1 <0>         0.0784
     57 H18         3.3620    3.0125    1.9412 H         1 <0>         0.0664
     58 H19         4.2727    1.4832    1.9250 H         1 <0>         0.0669
     59 H20         6.2013    2.6429    0.8836 H         1 <0>         0.0738
     60 H21         5.2905    4.1721    0.8997 H         1 <0>         0.0729
     61 H22         5.1289    4.0497    3.3711 H         1 <0>         0.0490
     62 H23         6.0396    2.5205    3.3549 H         1 <0>         0.0496
     63 H24         6.9049    5.0935    4.6910 H         1 <0>         0.0480
     64 H25         7.8157    3.5643    4.6748 H         1 <0>         0.0483
     65 H26         9.6667    4.6796    3.4590 H         1 <0>         0.0735
     66 H27         8.7560    6.2088    3.4752 H         1 <0>         0.0731
     67 H28         8.7625    6.1865    5.9547 H         1 <0>         0.0687
     68 H29         9.6733    4.6573    5.9385 H         1 <0>         0.0689
     69 H30        11.5244    5.7726    4.7227 H         1 <0>         0.0762
     70 H31        10.6136    7.3018    4.7389 H         1 <0>         0.0758
     71 H32        10.6202    7.2795    7.2184 H         1 <0>         0.0883
     72 H33        11.5309    5.7503    7.2022 H         1 <0>         0.0886
     73 H34        13.3820    6.8656    5.9864 H         1 <0>         0.1326
     74 H35        12.4712    8.3948    6.0026 H         1 <0>         0.1316
     75 H36        12.5099    8.3157    8.3856 H         1 <0>         0.4314
     76 H37        15.1656    7.9151    7.1997 H         1 <0>         0.1450
     77 H38        14.2548    9.4443    7.2159 H         1 <0>         0.1366
     78 H39        15.3033   11.4897    8.8478 H         1 <0>         0.1275
     79 H40        17.4070   12.7497    8.6370 H         1 <0>         0.1403
     80 H41        17.5058    7.8513    9.1695 H         1 <0>         0.1419
     81 H42        20.5221    9.0710    8.0257 H         1 <0>         0.0707
     82 H43        20.5853    9.2610    9.7944 H         1 <0>         0.0654
     83 H44        20.5574    6.9620    9.1467 H         1 <0>         0.3933
     84 H45        20.1751   11.9951    9.5081 H         1 <0>         0.4012
     85 H46        13.8230   10.4531    9.4480 H         1 <0>         0.3878
     86 H47        13.3530    6.9001    8.3706 H         1 <0>         0.4294
@<TRIPOS>BOND
     1    1    6 ar
     2    1    2 ar
     3    1   41 1
     4    2    3 ar
     5    2   42 1
     6    3    4 ar
     7    3   16 1
     8    4    5 ar
     9    4   43 1
    10    5    6 ar
    11    5    7 1
    12    6   44 1
    13    7    8 2
    14    7    9 2
    15    7   10 1
    16   10   15 1
    17   10   11 1
    18   11   12 1
    19   11   45 1
    20   11   46 1
    21   12   13 1
    22   12   47 1
    23   12   48 1
    24   13   14 1
    25   13   49 1
    26   13   50 1
    27   14   15 1
    28   14   51 1
    29   14   52 1
    30   15   53 1
    31   15   54 1
    32   16   17 1
    33   16   55 1
    34   16   56 1
    35   17   18 1
    36   17   57 1
    37   17   58 1
    38   18   19 1
    39   18   59 1
    40   18   60 1
    41   19   20 1
    42   19   61 1
    43   19   62 1
    44   20   21 1
    45   21   22 1
    46   21   63 1
    47   21   64 1
    48   22   23 1
    49   22   65 1
    50   22   66 1
    51   23   24 1
    52   23   67 1
    53   23   68 1
    54   24   25 1
    55   24   69 1
    56   24   70 1
    57   25   26 1
    58   25   71 1
    59   25   72 1
    60   26   27 1
    61   26   73 1
    62   26   74 1
    63   27   28 1
    64   27   75 1
    65   27   86 1
    66   28   29 1
    67   28   76 1
    68   28   77 1
    69   29   30 1
    70   29   31 1
    71   29   40 1
    72   31   36 ar
    73   31   32 ar
    74   32   33 ar
    75   32   78 1
    76   33   34 ar
    77   33   79 1
    78   34   35 ar
    79   34   39 1
    80   35   36 ar
    81   35   37 1
    82   36   80 1
    83   37   38 1
    84   37   81 1
    85   37   82 1
    86   38   83 1
    87   39   84 1
    88   40   85 1
@<TRIPOS>MOLECULE
CHEMBL500782
   89    91     0     0     0
SMALL
USER_CHARGES

@<TRIPOS>ATOM
      1 C1         -0.0167    1.3779    0.0096 C.ar      1 <0>        -0.1343
      2 C2          1.1711    2.0854    0.0021 C.ar      1 <0>        -0.0600
      3 C3          2.3773    1.4107   -0.0130 C.ar      1 <0>        -0.1023
      4 C4          2.3960    0.0283   -0.0201 C.ar      1 <0>        -0.0162
      5 C5          1.2086   -0.6790   -0.0117 C.ar      1 <0>        -0.6710
      6 C6          0.0021   -0.0041    0.0020 C.ar      1 <0>        -0.0237
      7 S1          1.2325   -2.4408   -0.0219 S.o2      1 <0>         2.6906
      8 O1         -0.0129   -2.8607   -0.5621 O.2       1 <0>        -0.9530
      9 O2          2.4774   -2.8268   -0.5880 O.2       1 <0>        -0.9577
     10 N1          1.2558   -2.9393    1.5571 N.pl3     1 <0>        -1.1121
     11 C7          0.1111   -2.6642    2.4290 C.3       1 <0>         0.1478
     12 C8          0.3657   -1.3757    3.2137 C.3       1 <0>        -0.1405
     13 C9         -0.8298   -1.0884    4.1243 C.3       1 <0>        -0.1182
     14 C10        -1.0183   -2.2512    5.1006 C.3       1 <0>        -0.1228
     15 C11        -1.2729   -3.5398    4.3159 C.3       1 <0>        -0.1201
     16 C12        -0.0775   -3.8271    3.4053 C.3       1 <0>        -0.1224
     17 C13         3.6720    2.1819   -0.0222 C.3       1 <0>        -0.0819
     18 C14         4.1244    2.4362    1.4171 C.3       1 <0>        -0.1119
     19 C15         5.4389    3.2191    1.4077 C.3       1 <0>        -0.1196
     20 C16         5.8913    3.4734    2.8470 C.3       1 <0>         0.0630
     21 O3          7.1190    4.2047    2.8382 O.3       1 <0>        -0.3899
     22 C17         7.6312    4.4960    4.1401 C.3       1 <0>         0.0611
     23 C18         8.9404    5.2771    4.0099 C.3       1 <0>        -0.1206
     24 C19         9.4889    5.5890    5.4038 C.3       1 <0>        -0.1184
     25 C20        10.7980    6.3701    5.2736 C.3       1 <0>        -0.1169
     26 C21        11.3465    6.6820    6.6675 C.3       1 <0>        -0.1501
     27 C22        12.6557    7.4631    6.5373 C.3       1 <0>        -0.0105
     28 N2         13.1823    7.7626    7.8756 N.4       1 <0>        -0.5057
     29 C23        14.4392    8.5126    7.7506 C.3       1 <0>        -0.0427
     30 C24        14.9877    8.8245    9.1445 C.3       1 <0>         0.1378
     31 H1         15.1721    7.8928    9.6792 H         1 <0>         0.1325
     32 C25        16.2772    9.5938    9.0163 C.ar      1 <0>        -0.1555
     33 C26        16.2491   10.9686    8.8700 C.ar      1 <0>        -0.0897
     34 C27        17.4295   11.6760    8.7519 C.ar      1 <0>        -0.1374
     35 C28        18.6443   11.0061    8.7805 C.ar      1 <0>         0.1337
     36 C29        18.6698    9.6270    8.9278 C.ar      1 <0>        -0.1102
     37 C30        17.4863    8.9246    9.0508 C.ar      1 <0>        -0.0623
     38 C31        19.9873    8.8962    8.9593 C.3       1 <0>         0.1174
     39 O4         19.7515    7.4958    9.1182 O.3       1 <0>        -0.5757
     40 O5         19.8071   11.6998    8.6641 O.3       1 <0>        -0.4942
     41 O6         14.0355    9.6078    9.8668 O.3       1 <0>        -0.5480
     42 H2         -0.9591    1.9051    0.0259 H         1 <0>         0.1342
     43 H3          1.1565    3.1653    0.0076 H         1 <0>         0.1302
     44 H4          3.3385   -0.4989   -0.0326 H         1 <0>         0.1385
     45 H5         -0.9258   -0.5567    0.0079 H         1 <0>         0.1395
     46 H6          2.0273   -3.4135    1.9047 H         1 <0>         0.4190
     47 H7         -0.7877   -2.5491    1.8232 H         1 <0>         0.0931
     48 H8          1.2645   -1.4908    3.8196 H         1 <0>         0.0700
     49 H9          0.5000   -0.5472    2.5182 H         1 <0>         0.0676
     50 H10        -0.6484   -0.1704    4.6834 H         1 <0>         0.0653
     51 H11        -1.7286   -0.9732    3.5185 H         1 <0>         0.0657
     52 H12        -0.1195   -2.3664    5.7064 H         1 <0>         0.0626
     53 H13        -1.8700   -2.0466    5.7493 H         1 <0>         0.0652
     54 H14        -1.4073   -4.3682    5.0115 H         1 <0>         0.0694
     55 H15        -2.1717   -3.4246    3.7101 H         1 <0>         0.0674
     56 H16        -0.2589   -4.7450    2.8463 H         1 <0>         0.0736
     57 H17         0.8213   -3.9422    4.0112 H         1 <0>         0.0700
     58 H18         4.4344    1.6057   -0.5463 H         1 <0>         0.0792
     59 H19         3.5236    3.1349   -0.5302 H         1 <0>         0.0784
     60 H20         3.3620    3.0125    1.9412 H         1 <0>         0.0666
     61 H21         4.2727    1.4832    1.9250 H         1 <0>         0.0669
     62 H22         6.2013    2.6429    0.8836 H         1 <0>         0.0737
     63 H23         5.2905    4.1721    0.8997 H         1 <0>         0.0729
     64 H24         5.1289    4.0497    3.3711 H         1 <0>         0.0491
     65 H25         6.0396    2.5205    3.3549 H         1 <0>         0.0495
     66 H26         6.9049    5.0935    4.6910 H         1 <0>         0.0481
     67 H27         7.8157    3.5643    4.6748 H         1 <0>         0.0483
     68 H28         9.6667    4.6796    3.4590 H         1 <0>         0.0734
     69 H29         8.7560    6.2088    3.4752 H         1 <0>         0.0732
     70 H30         8.7625    6.1865    5.9547 H         1 <0>         0.0687
     71 H31         9.6733    4.6573    5.9385 H         1 <0>         0.0689
     72 H32        11.5244    5.7726    4.7227 H         1 <0>         0.0762
     73 H33        10.6136    7.3018    4.7389 H         1 <0>         0.0758
     74 H34        10.6202    7.2795    7.2184 H         1 <0>         0.0883
     75 H35        11.5309    5.7503    7.2022 H         1 <0>         0.0886
     76 H36        13.3820    6.8656    5.9864 H         1 <0>         0.1326
     77 H37        12.4712    8.3948    6.0026 H         1 <0>         0.1316
     78 H38        12.5099    8.3157    8.3856 H         1 <0>         0.4314
     79 H39        15.1656    7.9151    7.1997 H         1 <0>         0.1450
     80 H40        14.2548    9.4443    7.2159 H         1 <0>         0.1366
     81 H41        15.3033   11.4897    8.8478 H         1 <0>         0.1275
     82 H42        17.4070   12.7497    8.6370 H         1 <0>         0.1403
     83 H43        17.5058    7.8513    9.1695 H         1 <0>         0.1419
     84 H44        20.5221    9.0710    8.0257 H         1 <0>         0.0707
     85 H45        20.5853    9.2610    9.7944 H         1 <0>         0.0654
     86 H46        20.5574    6.9620    9.1467 H         1 <0>         0.3933
     87 H47        20.1751   11.9951    9.5081 H         1 <0>         0.4012
     88 H48        13.8230   10.4531    9.4480 H         1 <0>         0.3878
     89 H49        13.3530    6.9001    8.3706 H         1 <0>         0.4294
@<TRIPOS>BOND
     1    1    6 ar
     2    1    2 ar
     3    1   42 1
     4    2    3 ar
     5    2   43 1
     6    3    4 ar
     7    3   17 1
     8    4    5 ar
     9    4   44 1
    10    5    6 ar
    11    5    7 1
    12    6   45 1
    13    7    8 2
    14    7    9 2
    15    7   10 1
    16   10   11 1
    17   10   46 1
    18   11   16 1
    19   11   12 1
    20   11   47 1
    21   12   13 1
    22   12   48 1
    23   12   49 1
    24   13   14 1
    25   13   50 1
    26   13   51 1
    27   14   15 1
    28   14   52 1
    29   14   53 1
    30   15   16 1
    31   15   54 1
    32   15   55 1
    33   16   56 1
    34   16   57 1
    35   17   18 1
    36   17   58 1
    37   17   59 1
    38   18   19 1
    39   18   60 1
    40   18   61 1
    41   19   20 1
    42   19   62 1
    43   19   63 1
    44   20   21 1
    45   20   64 1
    46   20   65 1
    47   21   22 1
    48   22   23 1
    49   22   66 1
    50   22   67 1
    51   23   24 1
    52   23   68 1
    53   23   69 1
    54   24   25 1
    55   24   70 1
    56   24   71 1
    57   25   26 1
    58   25   72 1
    59   25   73 1
    60   26   27 1
    61   26   74 1
    62   26   75 1
    63   27   28 1
    64   27   76 1
    65   27   77 1
    66   28   29 1
    67   28   78 1
    68   28   89 1
    69   29   30 1
    70   29   79 1
    71   29   80 1
    72   30   31 1
    73   30   32 1
    74   30   41 1
    75   32   37 ar
    76   32   33 ar
    77   33   34 ar
    78   33   81 1
    79   34   35 ar
    80   34   82 1
    81   35   36 ar
    82   35   40 1
    83   36   37 ar
    84   36   38 1
    85   37   83 1
    86   38   39 1
    87   38   84 1
    88   38   85 1
    89   39   86 1
    90   40   87 1
    91   41   88 1
@<TRIPOS>MOLECULE
CHEMBL482397
   51    53     0     0     0
SMALL
USER_CHARGES

@<TRIPOS>ATOM
      1 C1         -0.0187    1.5258    0.0104 C.3       1 <0>        -0.1750
      2 C2          0.0021   -0.0041    0.0020 C.3       1 <0>         0.0620
      3 C3          0.7421   -0.5109    1.2415 C.3       1 <0>         0.0600
      4 O1          0.8634   -1.9332    1.1755 O.3       1 <0>        -0.5820
      5 C4         -1.4333   -0.5336    0.0129 C.3       1 <0>         0.0682
      6 O2         -2.1022   -0.0728    1.1886 O.3       1 <0>        -0.5550
      7 N1          0.6897   -0.4778   -1.2066 N.4       1 <0>        -0.4920
      8 C5          2.0678    0.0307   -1.2170 C.3       1 <0>        -0.0466
      9 C6          2.7840   -0.4628   -2.4758 C.3       1 <0>         0.0899
     10 C7          4.2531   -0.0383   -2.4263 C.3       1 <0>         0.0273
     11 O3          4.9483   -0.5972   -3.5427 O.3       1 <0>        -0.2884
     12 C8          6.2741   -0.3146   -3.6488 C.ar      1 <0>         0.0969
     13 C9          6.8903    0.4767   -2.6972 C.ar      1 <0>        -0.1492
     14 C10         8.2414    0.7739   -2.7900 C.ar      1 <0>        -0.1097
     15 C11         8.9893    0.2784   -3.8361 C.ar      1 <0>        -0.0551
     16 C12         8.3803   -0.5223   -4.8016 C.ar      1 <0>        -0.1869
     17 C13         7.0141   -0.8283   -4.7154 C.ar      1 <0>         0.1393
     18 O4          6.4109   -1.5940   -5.6473 O.3       1 <0>        -0.2180
     19 C14         7.1137   -2.3568   -6.5076 C.ar      1 <0>         0.1545
     20 C15         6.4769   -3.3686   -7.2207 C.ar      1 <0>        -0.1438
     21 C16         7.1921   -4.1463   -8.1055 C.ar      1 <0>        -0.0509
     22 C17         8.5492   -3.9351   -8.3003 C.ar      1 <0>        -0.1471
     23 C18         9.2015   -2.9414   -7.6032 C.ar      1 <0>        -0.0265
     24 C19         8.4886   -2.1512   -6.7030 C.ar      1 <0>        -0.2284
     25 C20         9.1558   -1.0773   -5.9319 C.2       1 <0>         0.4386
     26 O5         10.2759   -0.6853   -6.2020 O.2       1 <0>        -0.4317
     27 O6          2.1628    0.1050   -3.6307 O.3       1 <0>        -0.5408
     28 H1          1.0039    1.9031    0.0027 H         1 <0>         0.0830
     29 H2         -0.5459    1.8868   -0.8726 H         1 <0>         0.0903
     30 H3         -0.5289    1.8773    0.9072 H         1 <0>         0.1177
     31 H4          1.7350   -0.0630    1.2804 H         1 <0>         0.0720
     32 H5          0.1838   -0.2350    2.1361 H         1 <0>         0.1036
     33 H6          1.3234   -2.3242    1.9309 H         1 <0>         0.4122
     34 H7         -1.9605   -0.1726   -0.8702 H         1 <0>         0.0705
     35 H8         -1.4185   -1.6235    0.0069 H         1 <0>         0.0781
     36 H9         -3.0191   -0.3710    1.2619 H         1 <0>         0.4081
     37 H10         0.7033   -1.4867   -1.2121 H         1 <0>         0.4371
     38 H11         2.0530    1.1205   -1.2110 H         1 <0>         0.1431
     39 H12         2.5950   -0.3304   -0.3340 H         1 <0>         0.1470
     40 H13         2.7213   -1.5498   -2.5270 H         1 <0>         0.1366
     41 H14         4.3186    1.0490   -2.4647 H         1 <0>         0.0797
     42 H15         4.7039   -0.3970   -1.5010 H         1 <0>         0.0837
     43 H16         6.3128    0.8680   -1.8727 H         1 <0>         0.1411
     44 H17         8.7088    1.3956   -2.0407 H         1 <0>         0.1444
     45 H18        10.0419    0.5093   -3.9078 H         1 <0>         0.1490
     46 H19         5.4207   -3.5446   -7.0800 H         1 <0>         0.1430
     47 H20         6.6898   -4.9293   -8.6542 H         1 <0>         0.1433
     48 H21         9.0956   -4.5509   -8.9993 H         1 <0>         0.1408
     49 H22        10.2581   -2.7759   -7.7533 H         1 <0>         0.1443
     50 H23         2.1814    1.0716   -3.6522 H         1 <0>         0.3901
     51 H24         0.2017   -0.1436   -2.0240 H         1 <0>         0.4319
@<TRIPOS>BOND
     1    1    2 1
     2    1   28 1
     3    1   29 1
     4    1   30 1
     5    2    3 1
     6    2    5 1
     7    2    7 1
     8    3    4 1
     9    3   31 1
    10    3   32 1
    11    4   33 1
    12    5    6 1
    13    5   34 1
    14    5   35 1
    15    6   36 1
    16    7    8 1
    17    7   37 1
    18    7   51 1
    19    8    9 1
    20    8   38 1
    21    8   39 1
    22    9   10 1
    23    9   27 1
    24    9   40 1
    25   10   11 1
    26   10   41 1
    27   10   42 1
    28   11   12 1
    29   12   17 ar
    30   12   13 ar
    31   13   14 ar
    32   13   43 1
    33   14   15 ar
    34   14   44 1
    35   15   16 ar
    36   15   45 1
    37   16   25 1
    38   16   17 ar
    39   17   18 1
    40   18   19 1
    41   19   24 ar
    42   19   20 ar
    43   20   21 ar
    44   20   46 1
    45   21   22 ar
    46   21   47 1
    47   22   23 ar
    48   22   48 1
    49   23   24 ar
    50   23   49 1
    51   24   25 1
    52   25   26 2
    53   27   50 1
@<TRIPOS>MOLECULE
CHEMBL482397__1
   51    53     0     0     0
SMALL
USER_CHARGES

@<TRIPOS>ATOM
      1 C1         -0.0187    1.5258    0.0104 C.3       1 <0>        -0.1756
      2 C2          0.0021   -0.0041    0.0020 C.3       1 <0>         0.0620
      3 C3          0.7421   -0.5109    1.2415 C.3       1 <0>         0.0602
      4 O1          0.8634   -1.9332    1.1755 O.3       1 <0>        -0.5812
      5 C4         -1.4333   -0.5336    0.0129 C.3       1 <0>         0.0682
      6 O2         -2.1022   -0.0728    1.1886 O.3       1 <0>        -0.5550
      7 N1          0.6897   -0.4778   -1.2066 N.4       1 <0>        -0.4916
      8 C5          2.0678    0.0307   -1.2170 C.3       1 <0>        -0.0474
      9 C6          2.7840   -0.4628   -2.4758 C.3       1 <0>         0.0897
     10 C7          4.2193    0.0668   -2.4867 C.3       1 <0>         0.0270
     11 O3          4.8516   -0.2959   -3.7158 O.3       1 <0>        -0.2884
     12 C8          6.1408    0.1009   -3.8875 C.ar      1 <0>         0.0968
     13 C9          6.7817    0.8168   -2.8935 C.ar      1 <0>        -0.1492
     14 C10         8.0961    1.2285   -3.0521 C.ar      1 <0>        -0.1098
     15 C11         8.7826    0.9240   -4.2077 C.ar      1 <0>        -0.0550
     16 C12         8.1483    0.2011   -5.2172 C.ar      1 <0>        -0.1870
     17 C13         6.8188   -0.2197   -5.0651 C.ar      1 <0>         0.1394
     18 O4          6.1909   -0.9116   -6.0373 O.3       1 <0>        -0.2182
     19 C14         6.8668   -1.5067   -7.0398 C.ar      1 <0>         0.1546
     20 C15         6.2413   -2.4713   -7.8245 C.ar      1 <0>        -0.1435
     21 C16         6.9284   -3.0772   -8.8540 C.ar      1 <0>        -0.0509
     22 C17         8.2459   -2.7378   -9.1249 C.ar      1 <0>        -0.1471
     23 C18         8.8867   -1.7878   -8.3595 C.ar      1 <0>        -0.0266
     24 C19         8.2023   -1.1713   -7.3134 C.ar      1 <0>        -0.2285
     25 C20         8.8589   -0.1499   -6.4658 C.2       1 <0>         0.4386
     26 O5          9.9218    0.3590   -6.7698 O.2       1 <0>        -0.4317
     27 O6          2.8033   -1.8916   -2.4837 O.3       1 <0>        -0.5404
     28 H1          1.0039    1.9031    0.0027 H         1 <0>         0.0836
     29 H2         -0.5459    1.8868   -0.8726 H         1 <0>         0.0905
     30 H3         -0.5289    1.8773    0.9072 H         1 <0>         0.1177
     31 H4          1.7350   -0.0630    1.2804 H         1 <0>         0.0715
     32 H5          0.1838   -0.2350    2.1361 H         1 <0>         0.1034
     33 H6          1.3234   -2.3242    1.9309 H         1 <0>         0.4116
     34 H7         -1.9605   -0.1726   -0.8702 H         1 <0>         0.0704
     35 H8         -1.4185   -1.6235    0.0069 H         1 <0>         0.0782
     36 H9         -3.0191   -0.3710    1.2619 H         1 <0>         0.4080
     37 H10         0.7033   -1.4867   -1.2121 H         1 <0>         0.4403
     38 H11         2.0530    1.1205   -1.2110 H         1 <0>         0.1492
     39 H12         2.5950   -0.3304   -0.3340 H         1 <0>         0.1408
     40 H13         2.2568   -0.1017   -3.3589 H         1 <0>         0.1368
     41 H14         4.2068    1.1525   -2.3912 H         1 <0>         0.0842
     42 H15         4.7722   -0.3649   -1.6524 H         1 <0>         0.0790
     43 H16         6.2525    1.0584   -1.9835 H         1 <0>         0.1411
     44 H17         8.5831    1.7895   -2.2682 H         1 <0>         0.1444
     45 H18         9.8067    1.2441   -4.3308 H         1 <0>         0.1489
     46 H19         5.2158   -2.7457   -7.6259 H         1 <0>         0.1431
     47 H20         6.4352   -3.8249   -9.4574 H         1 <0>         0.1433
     48 H21         8.7704   -3.2193   -9.9370 H         1 <0>         0.1408
     49 H22         9.9125   -1.5227   -8.5689 H         1 <0>         0.1443
     50 H23         3.2576   -2.2830   -1.7250 H         1 <0>         0.3906
     51 H24         0.2017   -0.1436   -2.0240 H         1 <0>         0.4286
@<TRIPOS>BOND
     1    1    2 1
     2    1   28 1
     3    1   29 1
     4    1   30 1
     5    2    3 1
     6    2    5 1
     7    2    7 1
     8    3    4 1
     9    3   31 1
    10    3   32 1
    11    4   33 1
    12    5    6 1
    13    5   34 1
    14    5   35 1
    15    6   36 1
    16    7    8 1
    17    7   37 1
    18    7   51 1
    19    8    9 1
    20    8   38 1
    21    8   39 1
    22    9   10 1
    23    9   27 1
    24    9   40 1
    25   10   11 1
    26   10   41 1
    27   10   42 1
    28   11   12 1
    29   12   17 ar
    30   12   13 ar
    31   13   14 ar
    32   13   43 1
    33   14   15 ar
    34   14   44 1
    35   15   16 ar
    36   15   45 1
    37   16   25 1
    38   16   17 ar
    39   17   18 1
    40   18   19 1
    41   19   24 ar
    42   19   20 ar
    43   20   21 ar
    44   20   46 1
    45   21   22 ar
    46   21   47 1
    47   22   23 ar
    48   22   48 1
    49   23   24 ar
    50   23   49 1
    51   24   25 1
    52   25   26 2
    53   27   50 1
@<TRIPOS>MOLECULE
CHEMBL466519
   62    65     0     0     0
SMALL
USER_CHARGES

@<TRIPOS>ATOM
      1 C1          1.9858   -5.7239    4.2933 C.ar      1 <0>        -0.0735
      2 C2          1.6612   -7.0455    4.0269 C.ar      1 <0>        -0.1692
      3 C3          1.2524   -7.3950    2.7540 C.ar      1 <0>         0.1047
      4 N1          1.1700   -6.4889    1.7993 N.ar      1 <0>        -0.4616
      5 C4          1.4706   -5.2236    2.0164 C.ar      1 <0>         0.1311
      6 C5          1.8865   -4.7998    3.2646 C.ar      1 <0>        -0.1643
      7 C6          1.3600   -4.2280    0.8905 C.3       1 <0>        -0.0891
      8 C7          2.1808   -4.7016   -0.2813 C.2       1 <0>         0.5230
      9 O1          2.7952   -5.7448   -0.2092 O.2       1 <0>        -0.4956
     10 N2          2.2322   -3.9658   -1.4093 N.am      1 <0>        -0.6815
     11 C8          3.0695   -4.3547   -2.4607 C.ar      1 <0>         0.1686
     12 C9          3.7067   -3.3937   -3.2348 C.ar      1 <0>        -0.1439
     13 C10         4.5325   -3.7809   -4.2719 C.ar      1 <0>        -0.0880
     14 C11         4.7252   -5.1237   -4.5400 C.ar      1 <0>        -0.1294
     15 C12         4.0918   -6.0830   -3.7714 C.ar      1 <0>        -0.0879
     16 C13         3.2696   -5.7025   -2.7289 C.ar      1 <0>        -0.1184
     17 C14         5.6269   -5.5426   -5.6724 C.3       1 <0>        -0.0968
     18 C15         7.0570   -5.7032   -5.1529 C.3       1 <0>        -0.0074
     19 N3          7.9360   -6.1115   -6.2568 N.4       1 <0>        -0.5039
     20 C16         9.3091   -6.2657   -5.7581 C.3       1 <0>        -0.0418
     21 C17        10.2246   -6.6909   -6.9078 C.3       1 <0>         0.0848
     22 H1         10.2049   -5.9304   -7.6883 H         1 <0>         0.1358
     23 C18        11.6548   -6.8515   -6.3883 C.3       1 <0>         0.0308
     24 O2         12.5299   -7.1346   -7.4820 O.3       1 <0>        -0.3033
     25 C19        13.8467   -7.3069   -7.1903 C.ar      1 <0>         0.1363
     26 C20        14.2870   -7.2115   -5.8798 C.ar      1 <0>        -0.2013
     27 C21        15.6267   -7.3865   -5.5808 C.ar      1 <0>        -0.0663
     28 C22        16.5358   -7.6574   -6.5847 C.ar      1 <0>        -0.1313
     29 C23        16.1062   -7.7551   -7.9004 C.ar      1 <0>         0.1329
     30 C24        14.7556   -7.5850   -8.2052 C.ar      1 <0>         0.0648
     31 N4         14.6302   -7.7457   -9.5850 N.am      1 <0>        -0.6347
     32 H2         13.8057   -7.6803  -10.0919 H         1 <0>         0.4384
     33 C25        15.8494   -8.0070  -10.0931 C.2       1 <0>         0.6838
     34 O3         16.0919   -8.1999  -11.2699 O.2       1 <0>        -0.5437
     35 N5         16.7615   -8.0107   -9.1026 N.am      1 <0>        -0.6390
     36 H3         17.7119   -8.1742   -9.2071 H         1 <0>         0.4417
     37 O4          9.7699   -7.9352   -7.4435 O.3       1 <0>        -0.5438
     38 H4          2.3041   -5.4208    5.2798 H         1 <0>         0.1378
     39 H5          1.7274   -7.7922    4.8044 H         1 <0>         0.1378
     40 H6          0.9979   -8.4222    2.5385 H         1 <0>         0.1573
     41 H7          2.1310   -3.7620    3.4363 H         1 <0>         0.1354
     42 H8          0.3166   -4.1348    0.5892 H         1 <0>         0.1191
     43 H9          1.7296   -3.2587    1.2250 H         1 <0>         0.1157
     44 H10         1.6888   -3.1666   -1.4922 H         1 <0>         0.4159
     45 H11         3.5564   -2.3448   -3.0261 H         1 <0>         0.1323
     46 H12         5.0281   -3.0340   -4.8744 H         1 <0>         0.1280
     47 H13         4.2440   -7.1310   -3.9835 H         1 <0>         0.1270
     48 H14         2.7792   -6.4523   -2.1257 H         1 <0>         0.1465
     49 H15         5.2801   -6.4917   -6.0810 H         1 <0>         0.0960
     50 H16         5.6071   -4.7820   -6.4530 H         1 <0>         0.0959
     51 H17         7.4039   -4.7541   -4.7443 H         1 <0>         0.1343
     52 H18         7.0768   -6.4637   -4.3724 H         1 <0>         0.1340
     53 H19         7.6150   -6.9901   -6.6351 H         1 <0>         0.4336
     54 H20         9.6560   -5.3166   -5.3494 H         1 <0>         0.1475
     55 H21         9.3289   -7.0262   -4.9775 H         1 <0>         0.1404
     56 H22        11.9698   -5.9292   -5.9003 H         1 <0>         0.0852
     57 H23        11.6911   -7.6723   -5.6720 H         1 <0>         0.0803
     58 H24        13.5822   -6.9996   -5.0893 H         1 <0>         0.1356
     59 H25        15.9632   -7.3105   -4.5573 H         1 <0>         0.1417
     60 H26        17.5803   -7.7927   -6.3458 H         1 <0>         0.1400
     61 H27         9.7612   -8.6595   -6.8029 H         1 <0>         0.3909
     62 H28         7.9177   -5.4074   -6.9794 H         1 <0>         0.4308
@<TRIPOS>BOND
     1    1    6 ar
     2    1    2 ar
     3    1   38 1
     4    2    3 ar
     5    2   39 1
     6    3    4 ar
     7    3   40 1
     8    4    5 ar
     9    5    6 ar
    10    5    7 1
    11    6   41 1
    12    7    8 1
    13    7   42 1
    14    7   43 1
    15    8    9 2
    16    8   10 am
    17   10   11 1
    18   10   44 1
    19   11   16 ar
    20   11   12 ar
    21   12   13 ar
    22   12   45 1
    23   13   14 ar
    24   13   46 1
    25   14   15 ar
    26   14   17 1
    27   15   16 ar
    28   15   47 1
    29   16   48 1
    30   17   18 1
    31   17   49 1
    32   17   50 1
    33   18   19 1
    34   18   51 1
    35   18   52 1
    36   19   20 1
    37   19   53 1
    38   19   62 1
    39   20   21 1
    40   20   54 1
    41   20   55 1
    42   21   22 1
    43   21   23 1
    44   21   37 1
    45   23   24 1
    46   23   56 1
    47   23   57 1
    48   24   25 1
    49   25   30 ar
    50   25   26 ar
    51   26   27 ar
    52   26   58 1
    53   27   28 ar
    54   27   59 1
    55   28   29 ar
    56   28   60 1
    57   29   35 1
    58   29   30 ar
    59   30   31 1
    60   31   32 1
    61   31   33 am
    62   33   34 2
    63   33   35 am
    64   35   36 1
    65   37   61 1
@<TRIPOS>MOLECULE
CHEMBL466519__1
   63    66     0     0     0
SMALL
USER_CHARGES

@<TRIPOS>ATOM
      1 C1          0.3248   -7.2031   -3.0784 C.ar      1 <0>         0.0140
      2 C2         -0.9982   -7.0122   -3.4476 C.ar      1 <0>        -0.1203
      3 C3         -1.6882   -5.9266   -2.9426 C.ar      1 <0>         0.1392
      4 N1         -1.1026   -5.0783   -2.1199 N.ar      1 <0>        -0.4389
      5 C4          0.1533   -5.2285   -1.7475 C.ar      1 <0>         0.1728
      6 C5          0.9062   -6.2908   -2.2115 C.ar      1 <0>        -0.1066
      7 C6          0.7752   -4.2300   -0.8055 C.3       1 <0>        -0.1293
      8 C7          0.6686   -4.7397    0.6087 C.2       1 <0>         0.5196
      9 O1          0.1397   -5.8085    0.8298 O.2       1 <0>        -0.5126
     10 N2          1.1611   -4.0078    1.6276 N.am      1 <0>        -0.6622
     11 C8          0.9769   -4.4335    2.9478 C.ar      1 <0>         0.1459
     12 C9          0.7772   -3.5018    3.9579 C.ar      1 <0>        -0.1322
     13 C10         0.5958   -3.9252    5.2600 C.ar      1 <0>        -0.0867
     14 C11         0.6129   -5.2754    5.5582 C.ar      1 <0>        -0.1108
     15 C12         0.8121   -6.2057    4.5547 C.ar      1 <0>        -0.0892
     16 C13         0.9879   -5.7890    3.2497 C.ar      1 <0>        -0.1140
     17 C14         0.4146   -5.7339    6.9800 C.3       1 <0>        -0.1039
     18 C15        -1.0765   -5.9558    7.2411 C.3       1 <0>        -0.0056
     19 N3         -1.2698   -6.4027    8.6271 N.4       1 <0>        -0.5045
     20 C16        -2.7015   -6.6157    8.8777 C.3       1 <0>        -0.0412
     21 C17        -2.9028   -7.0812   10.3212 C.3       1 <0>         0.0839
     22 H1         -2.5234   -6.3212   11.0043 H         1 <0>         0.1367
     23 C18        -4.3939   -7.3031   10.5823 C.3       1 <0>         0.0315
     24 O2         -4.5935   -7.6248   11.9602 O.3       1 <0>        -0.3031
     25 C19        -5.8723   -7.8536   12.3617 C.ar      1 <0>         0.1344
     26 C20        -6.9122   -7.7762   11.4490 C.ar      1 <0>        -0.2020
     27 C21        -8.2144   -8.0088   11.8555 C.ar      1 <0>        -0.0671
     28 C22        -8.4887   -8.3197   13.1729 C.ar      1 <0>        -0.1298
     29 C23        -7.4554   -8.3998   14.0955 C.ar      1 <0>         0.1343
     30 C24        -6.1408   -8.1718   13.6884 C.ar      1 <0>         0.0659
     31 N4         -5.3362   -8.3281   14.8170 N.am      1 <0>        -0.6352
     32 H2         -4.3719   -8.2275   14.8455 H         1 <0>         0.4383
     33 C25        -6.1273   -8.6424   15.8603 C.2       1 <0>         0.6837
     34 O3         -5.7414   -8.8466   16.9962 O.2       1 <0>        -0.5409
     35 N5         -7.4116   -8.6846   15.4582 N.am      1 <0>        -0.6387
     36 H3         -8.1755   -8.8892   16.0199 H         1 <0>         0.4425
     37 O4         -2.1953   -8.3052   10.5300 O.3       1 <0>        -0.5427
     38 H4          0.8875   -8.0450   -3.4539 H         1 <0>         0.1822
     39 H5         -1.4830   -7.7030   -4.1214 H         1 <0>         0.1906
     40 H6         -2.7189   -5.7709   -3.2252 H         1 <0>         0.2141
     41 H7          1.9343   -6.4086   -1.9026 H         1 <0>         0.1840
     42 H8          1.8252   -4.0920   -1.0638 H         1 <0>         0.1577
     43 H9          0.2523   -3.2773   -0.8888 H         1 <0>         0.1374
     44 H10         1.6432   -3.1859    1.4459 H         1 <0>         0.4224
     45 H11         0.7640   -2.4471    3.7257 H         1 <0>         0.1358
     46 H12         0.4407   -3.2011    6.0461 H         1 <0>         0.1344
     47 H13         0.8253   -7.2595    4.7909 H         1 <0>         0.1318
     48 H14         1.1383   -6.5163    2.4656 H         1 <0>         0.1434
     49 H15         0.9542   -6.6675    7.1393 H         1 <0>         0.0998
     50 H16         0.7940   -4.9739    7.6631 H         1 <0>         0.1005
     51 H17        -1.6161   -5.0222    7.0818 H         1 <0>         0.1343
     52 H18        -1.4558   -6.7158    6.5580 H         1 <0>         0.1330
     53 H19        -0.7703   -7.2669    8.7745 H         1 <0>         0.4346
     54 H20        -3.2411   -5.6821    8.7184 H         1 <0>         0.1477
     55 H21        -3.0808   -7.3757    8.1946 H         1 <0>         0.1401
     56 H22        -4.9447   -6.3948   10.3377 H         1 <0>         0.0846
     57 H23        -4.7532   -8.1241    9.9618 H         1 <0>         0.0795
     58 H24        -6.7057   -7.5333   10.4171 H         1 <0>         0.1342
     59 H25        -9.0201   -7.9465   11.1391 H         1 <0>         0.1415
     60 H26        -9.5069   -8.4998   13.4849 H         1 <0>         0.1409
     61 H27        -2.4813   -9.0278    9.9547 H         1 <0>         0.3905
     62 H28        -0.9186   -5.6992    9.2594 H         1 <0>         0.4325
     63 H29        -1.6091   -4.3240   -1.7802 H         1 <0>         0.4475
@<TRIPOS>BOND
     1    1    6 ar
     2    1    2 ar
     3    1   38 1
     4    2    3 ar
     5    2   39 1
     6    3    4 ar
     7    3   40 1
     8    4    5 ar
     9    4   63 1
    10    5    6 ar
    11    5    7 1
    12    6   41 1
    13    7    8 1
    14    7   42 1
    15    7   43 1
    16    8    9 2
    17    8   10 am
    18   10   11 1
    19   10   44 1
    20   11   16 ar
    21   11   12 ar
    22   12   13 ar
    23   12   45 1
    24   13   14 ar
    25   13   46 1
    26   14   15 ar
    27   14   17 1
    28   15   16 ar
    29   15   47 1
    30   16   48 1
    31   17   18 1
    32   17   49 1
    33   17   50 1
    34   18   19 1
    35   18   51 1
    36   18   52 1
    37   19   20 1
    38   19   53 1
    39   19   62 1
    40   20   21 1
    41   20   54 1
    42   20   55 1
    43   21   22 1
    44   21   23 1
    45   21   37 1
    46   23   24 1
    47   23   56 1
    48   23   57 1
    49   24   25 1
    50   25   30 ar
    51   25   26 ar
    52   26   27 ar
    53   26   58 1
    54   27   28 ar
    55   27   59 1
    56   28   29 ar
    57   28   60 1
    58   29   35 1
    59   29   30 ar
    60   30   31 1
    61   31   32 1
    62   31   33 am
    63   33   34 2
    64   33   35 am
    65   35   36 1
    66   37   61 1
@<TRIPOS>MOLECULE
CHEMBL40609
   58    61     0     0     0
SMALL
USER_CHARGES

@<TRIPOS>ATOM
      1 C1          0.0444    1.3742   -0.0113 C.ar      1 <0>        -0.0401
      2 C2          1.2294    2.0831   -0.0093 C.ar      1 <0>        -0.1761
      3 C3          2.4493    1.4132   -0.0111 C.ar      1 <0>         0.1984
      4 C4          2.4548    0.0193   -0.0178 C.ar      1 <0>        -0.1737
      5 C5          1.2617   -0.6907   -0.0177 C.ar      1 <0>         0.1895
      6 C6          0.0539   -0.0085   -0.0146 C.ar      1 <0>        -0.2191
      7 O1          1.2771   -2.0508   -0.0209 O.3       1 <0>        -0.2867
      8 C7          0.0113   -2.7139   -0.0206 C.3       1 <0>         0.0250
      9 C8          0.2289   -4.2283   -0.0244 C.3       1 <0>         0.1161
     10 C9         -1.1211   -4.9373   -0.1499 C.3       1 <0>         0.0262
     11 N1         -0.9122   -6.3913   -0.1535 N.3       1 <0>        -0.5234
     12 C10        -0.1746   -6.8142   -1.3514 C.3       1 <0>         0.0363
     13 C11         0.1800   -8.3001   -1.2309 C.3       1 <0>         0.1237
     14 N2         -1.0535   -9.0545   -0.9615 N.pl3     1 <0>        -0.6248
     15 C12        -1.9174   -8.6049    0.1407 C.3       1 <0>         0.1193
     16 C13        -2.1894   -7.1070   -0.0338 C.3       1 <0>         0.0407
     17 C14        -1.3959  -10.1685   -1.7326 C.ar      1 <0>         0.2121
     18 C15        -0.6289  -10.5113   -2.8389 C.ar      1 <0>        -0.1361
     19 C16        -0.9692  -11.6129   -3.5988 C.ar      1 <0>        -0.0720
     20 C17        -2.0733  -12.3752   -3.2591 C.ar      1 <0>        -0.0156
     21 C18        -2.8390  -12.0360   -2.1578 C.ar      1 <0>        -0.6154
     22 C19        -2.5001  -10.9382   -1.3910 C.ar      1 <0>        -0.0913
     23 S1         -4.2438  -13.0093   -1.7290 S.o2      1 <0>         2.6980
     24 O2         -3.8160  -14.3644   -1.7344 O.2       1 <0>        -0.9441
     25 O3         -4.8271  -12.3992   -0.5859 O.2       1 <0>        -0.9621
     26 N3         -5.3409  -12.8545   -2.9598 N.pl3     1 <0>        -1.2454
     27 Cl1        -2.4986  -13.7591   -4.2171 Cl        1 <0>        -0.0453
     28 O4          0.8619   -4.6216    1.1949 O.3       1 <0>        -0.5333
     29 S2          3.9994   -0.8345   -0.0310 S.3       1 <0>        -0.0480
     30 C20         5.0845    0.3272   -0.9140 C.3       1 <0>        -0.1394
     31 C21         4.8286    1.7165   -0.3969 C.2       1 <0>         0.5246
     32 O5          5.7636    2.4869   -0.3362 O.2       1 <0>        -0.5108
     33 N4          3.6330    2.1466   -0.0029 N.am      1 <0>        -0.6547
     34 H1         -0.8968    1.9037   -0.0057 H         1 <0>         0.1377
     35 H2          1.2095    3.1629   -0.0059 H         1 <0>         0.1363
     36 H3         -0.8770   -0.5561   -0.0143 H         1 <0>         0.1369
     37 H4         -0.5478   -2.4294    0.8708 H         1 <0>         0.0712
     38 H5         -0.5502   -2.4253   -0.9092 H         1 <0>         0.0739
     39 H6          0.8629   -4.5022   -0.8677 H         1 <0>         0.1096
     40 H7         -1.7551   -4.6634    0.6934 H         1 <0>         0.0854
     41 H8         -1.6040   -4.6373   -1.0799 H         1 <0>         0.0480
     42 H9         -0.7948   -6.6587   -2.2342 H         1 <0>         0.0398
     43 H10         0.7401   -6.2281   -1.4412 H         1 <0>         0.0923
     44 H11         0.6252   -8.6472   -2.1633 H         1 <0>         0.0878
     45 H12         0.8834   -8.4433   -0.4105 H         1 <0>         0.0797
     46 H13        -2.8589   -9.1535    0.1151 H         1 <0>         0.0907
     47 H14        -1.4157   -8.7774    1.0929 H         1 <0>         0.0796
     48 H15        -2.7361   -6.7333    0.8320 H         1 <0>         0.0906
     49 H16        -2.7816   -6.9475   -0.9349 H         1 <0>         0.0407
     50 H17         0.2326   -9.9166   -3.1046 H         1 <0>         0.1419
     51 H18        -0.3735  -11.8797   -4.4592 H         1 <0>         0.1445
     52 H19        -3.0956  -10.6765   -0.5288 H         1 <0>         0.1534
     53 H20        -5.1334  -12.2990   -3.7274 H         1 <0>         0.4164
     54 H21        -6.1911  -13.3192   -2.9130 H         1 <0>         0.4230
     55 H22         0.3528   -4.4085    1.9889 H         1 <0>         0.3738
     56 H23         6.1264    0.0585   -0.7398 H         1 <0>         0.1517
     57 H24         4.8687    0.2892   -1.9818 H         1 <0>         0.1259
     58 H25         3.5807    3.0593    0.3214 H         1 <0>         0.4168
@<TRIPOS>BOND
     1    1    6 ar
     2    1    2 ar
     3    1   34 1
     4    2    3 ar
     5    2   35 1
     6    3   33 1
     7    3    4 ar
     8    4    5 ar
     9    4   29 1
    10    5    6 ar
    11    5    7 1
    12    6   36 1
    13    7    8 1
    14    8    9 1
    15    8   37 1
    16    8   38 1
    17    9   10 1
    18    9   28 1
    19    9   39 1
    20   10   11 1
    21   10   40 1
    22   10   41 1
    23   11   16 1
    24   11   12 1
    25   12   13 1
    26   12   42 1
    27   12   43 1
    28   13   14 1
    29   13   44 1
    30   13   45 1
    31   14   15 1
    32   14   17 1
    33   15   16 1
    34   15   46 1
    35   15   47 1
    36   16   48 1
    37   16   49 1
    38   17   22 ar
    39   17   18 ar
    40   18   19 ar
    41   18   50 1
    42   19   20 ar
    43   19   51 1
    44   20   21 ar
    45   20   27 1
    46   21   22 ar
    47   21   23 1
    48   22   52 1
    49   23   24 2
    50   23   25 2
    51   23   26 1
    52   26   53 1
    53   26   54 1
    54   28   55 1
    55   29   30 1
    56   30   31 1
    57   30   56 1
    58   30   57 1
    59   31   32 2
    60   31   33 am
    61   33   58 1
@<TRIPOS>MOLECULE
CHEMBL40609__1
   59    62     0     0     0
SMALL
USER_CHARGES

@<TRIPOS>ATOM
      1 C1          0.0465    1.3738   -0.0092 C.ar      1 <0>        -0.0391
      2 C2          1.2317    2.0823   -0.0079 C.ar      1 <0>        -0.1678
      3 C3          2.4514    1.4121   -0.0107 C.ar      1 <0>         0.2042
      4 C4          2.4564    0.0182   -0.0177 C.ar      1 <0>        -0.1690
      5 C5          1.2631   -0.6915   -0.0170 C.ar      1 <0>         0.1799
      6 C6          0.0555   -0.0089   -0.0128 C.ar      1 <0>        -0.2185
      7 O1          1.2781   -2.0515   -0.0204 O.3       1 <0>        -0.2873
      8 C7          0.0121   -2.7143   -0.0195 C.3       1 <0>         0.0282
      9 C8          0.2292   -4.2288   -0.0237 C.3       1 <0>         0.0862
     10 C9         -1.1211   -4.9373   -0.1484 C.3       1 <0>        -0.0437
     11 N1         -0.9126   -6.3914   -0.1525 N.4       1 <0>        -0.3773
     12 C10        -0.1510   -6.7715   -1.3490 C.3       1 <0>        -0.0291
     13 C11         0.1659   -8.2697   -1.2969 C.3       1 <0>         0.0991
     14 N2         -1.0947   -9.0071   -1.1199 N.pl3     1 <0>        -0.6423
     15 C12        -1.9997   -8.5838   -0.0401 C.3       1 <0>         0.0934
     16 C13        -2.2143   -7.0707   -0.1515 C.3       1 <0>        -0.0220
     17 C14        -1.4233  -10.0790   -1.9540 C.ar      1 <0>         0.1873
     18 C15        -0.6115  -10.3925   -3.0368 C.ar      1 <0>        -0.1191
     19 C16        -0.9384  -11.4525   -3.8592 C.ar      1 <0>        -0.0752
     20 C17        -2.0737  -12.2025   -3.6053 C.ar      1 <0>         0.0069
     21 C18        -2.8840  -11.8925   -2.5276 C.ar      1 <0>        -0.6211
     22 C19        -2.5590  -10.8365   -1.6986 C.ar      1 <0>        -0.0771
     23 S1         -4.3283  -12.8500   -2.2082 S.o2      1 <0>         2.6965
     24 O2         -3.9298  -14.2132   -2.2524 O.2       1 <0>        -0.9356
     25 O3         -4.9526  -12.2754   -1.0683 O.2       1 <0>        -0.9599
     26 N3         -5.3614  -12.6173   -3.4814 N.pl3     1 <0>        -1.2440
     27 Cl1        -2.4819  -13.5341   -4.6416 Cl        1 <0>        -0.0245
     28 O4          0.8630   -4.6225    1.1951 O.3       1 <0>        -0.5407
     29 S2          4.0008   -0.8361   -0.0321 S.3       1 <0>        -0.0541
     30 C20         5.0856    0.3255   -0.9157 C.3       1 <0>        -0.1357
     31 C21         4.8305    1.7147   -0.3980 C.2       1 <0>         0.5228
     32 O5          5.7658    2.4848   -0.3378 O.2       1 <0>        -0.5004
     33 N4          3.6353    2.1451   -0.0032 N.am      1 <0>        -0.6564
     34 H1         -0.8946    1.9036   -0.0029 H         1 <0>         0.1409
     35 H2          1.2121    3.1622   -0.0043 H         1 <0>         0.1407
     36 H3         -0.8755   -0.5562   -0.0120 H         1 <0>         0.1348
     37 H4         -0.5463   -2.4298    0.8724 H         1 <0>         0.0807
     38 H5         -0.5500   -2.4253   -0.9076 H         1 <0>         0.0848
     39 H6          0.8626   -4.5026   -0.8675 H         1 <0>         0.1356
     40 H7         -1.7544   -4.6634    0.6954 H         1 <0>         0.1418
     41 H8         -1.6045   -4.6369   -1.0781 H         1 <0>         0.1454
     42 H9         -0.7415   -6.5556   -2.2394 H         1 <0>         0.1357
     43 H10         0.7791   -6.2042   -1.3832 H         1 <0>         0.1453
     44 H11         0.6417   -8.5761   -2.2285 H         1 <0>         0.1285
     45 H12         0.8310   -8.4745   -0.4580 H         1 <0>         0.0962
     46 H13        -2.9556   -9.0977   -0.1408 H         1 <0>         0.1313
     47 H14        -1.5533   -8.8202    0.9258 H         1 <0>         0.0963
     48 H15        -2.8046   -6.7240    0.6967 H         1 <0>         0.1455
     49 H16        -2.7424   -6.8458   -1.0782 H         1 <0>         0.1359
     50 H17         0.2742   -9.8074   -3.2356 H         1 <0>         0.1435
     51 H18        -0.3079  -11.6964   -4.7014 H         1 <0>         0.1525
     52 H19        -3.1894  -10.5978   -0.8549 H         1 <0>         0.1545
     53 H20        -5.1053  -12.0348   -4.2135 H         1 <0>         0.4164
     54 H21        -6.2225  -13.0635   -3.4950 H         1 <0>         0.4271
     55 H22         0.3545   -4.4094    1.9895 H         1 <0>         0.3908
     56 H23         6.1276    0.0564   -0.7422 H         1 <0>         0.1543
     57 H24         4.8691    0.2877   -1.9833 H         1 <0>         0.1280
     58 H25         3.5834    3.0578    0.3214 H         1 <0>         0.4197
     59 H26        -0.3948   -6.6580    0.6715 H         1 <0>         0.4296
@<TRIPOS>BOND
     1    1    6 ar
     2    1    2 ar
     3    1   34 1
     4    2    3 ar
     5    2   35 1
     6    3   33 1
     7    3    4 ar
     8    4    5 ar
     9    4   29 1
    10    5    6 ar
    11    5    7 1
    12    6   36 1
    13    7    8 1
    14    8    9 1
    15    8   37 1
    16    8   38 1
    17    9   10 1
    18    9   28 1
    19    9   39 1
    20   10   11 1
    21   10   40 1
    22   10   41 1
    23   11   16 1
    24   11   12 1
    25   11   59 1
    26   12   13 1
    27   12   42 1
    28   12   43 1
    29   13   14 1
    30   13   44 1
    31   13   45 1
    32   14   15 1
    33   14   17 1
    34   15   16 1
    35   15   46 1
    36   15   47 1
    37   16   48 1
    38   16   49 1
    39   17   22 ar
    40   17   18 ar
    41   18   19 ar
    42   18   50 1
    43   19   20 ar
    44   19   51 1
    45   20   21 ar
    46   20   27 1
    47   21   22 ar
    48   21   23 1
    49   22   52 1
    50   23   24 2
    51   23   25 2
    52   23   26 1
    53   26   53 1
    54   26   54 1
    55   28   55 1
    56   29   30 1
    57   30   31 1
    58   30   56 1
    59   30   57 1
    60   31   32 2
    61   31   33 am
    62   33   58 1
@<TRIPOS>MOLECULE
CHEMBL40609__2
   58    61     0     0     0
SMALL
USER_CHARGES

@<TRIPOS>ATOM
      1 C1         -2.8469    1.0445    1.7085 C.ar      1 <0>        -0.0404
      2 C2         -3.1731    1.6098    2.9254 C.ar      1 <0>        -0.1763
      3 C3         -3.1369    0.8454    4.0879 C.ar      1 <0>         0.1983
      4 C4         -2.7645   -0.4952    4.0038 C.ar      1 <0>        -0.1735
      5 C5         -2.4390   -1.0613    2.7785 C.ar      1 <0>         0.1897
      6 C6         -2.4811   -0.2866    1.6286 C.ar      1 <0>        -0.2193
      7 O1         -2.0801   -2.3712    2.7060 O.3       1 <0>        -0.2861
      8 C7         -1.7587   -2.8851    1.4119 C.3       1 <0>         0.0250
      9 C8         -1.3820   -4.3633    1.5292 C.3       1 <0>         0.1184
     10 C9         -1.1591   -4.9453    0.1319 C.3       1 <0>         0.0261
     11 N1         -0.8029   -6.3661    0.2443 N.3       1 <0>        -0.5238
     12 C10        -0.1386   -6.8405   -0.9770 C.3       1 <0>         0.0411
     13 C11         0.3765   -8.2663   -0.7534 C.3       1 <0>         0.1239
     14 N2         -0.7431   -9.1002   -0.2903 N.pl3     1 <0>        -0.6247
     15 C12        -1.5440   -8.6211    0.8464 C.3       1 <0>         0.1189
     16 C13        -1.9835   -7.1814    0.5598 C.3       1 <0>         0.0376
     17 C14        -1.0383  -10.3153   -0.9142 C.ar      1 <0>         0.2121
     18 C15        -0.1977  -10.8125   -1.9022 C.ar      1 <0>        -0.1360
     19 C16        -0.4916  -12.0137   -2.5167 C.ar      1 <0>        -0.0720
     20 C17        -1.6223  -12.7221   -2.1491 C.ar      1 <0>        -0.0158
     21 C18        -2.4612  -12.2293   -1.1654 C.ar      1 <0>        -0.6152
     22 C19        -2.1693  -11.0309   -0.5437 C.ar      1 <0>        -0.0911
     23 S1         -3.8997  -13.1346   -0.7006 S.o2      1 <0>         2.6976
     24 O2         -3.4822  -14.4748   -0.4795 O.2       1 <0>        -0.9440
     25 O3         -4.5576  -12.3670    0.2980 O.2       1 <0>        -0.9616
     26 N3         -4.9062  -13.1632   -2.0153 N.pl3     1 <0>        -1.2454
     27 Cl1        -1.9890  -14.2316   -2.9242 Cl        1 <0>        -0.0453
     28 O4         -0.1821   -4.4898    2.2949 O.3       1 <0>        -0.5320
     29 S2         -2.7068   -1.4657    5.4768 S.3       1 <0>        -0.0488
     30 C20        -2.2928   -0.2313    6.7463 C.3       1 <0>        -0.1385
     31 C21        -3.1239    1.0007    6.5122 C.2       1 <0>         0.5246
     32 O5         -3.4934    1.6349    7.4779 O.2       1 <0>        -0.5110
     33 N4         -3.4753    1.4329    5.3042 N.am      1 <0>        -0.6548
     34 H1         -2.8821    1.6454    0.8118 H         1 <0>         0.1375
     35 H2         -3.4580    2.6503    2.9753 H         1 <0>         0.1361
     36 H3         -2.2291   -0.7222    0.6731 H         1 <0>         0.1367
     37 H4         -2.6223   -2.7812    0.7549 H         1 <0>         0.0736
     38 H5         -0.9183   -2.3277    0.9981 H         1 <0>         0.0705
     39 H6         -2.1878   -4.9054    2.0243 H         1 <0>         0.1091
     40 H7         -2.0731   -4.8451   -0.4535 H         1 <0>         0.0505
     41 H8         -0.3506   -4.4060   -0.3616 H         1 <0>         0.0831
     42 H9         -0.8498   -6.8360   -1.8030 H         1 <0>         0.0398
     43 H10         0.6988   -6.1842   -1.2139 H         1 <0>         0.0890
     44 H11         0.7676   -8.6653   -1.6892 H         1 <0>         0.0874
     45 H12         1.1629   -8.2573    0.0013 H         1 <0>         0.0782
     46 H13        -2.4225   -9.2548    0.9682 H         1 <0>         0.0910
     47 H14        -0.9421   -8.6463    1.7548 H         1 <0>         0.0812
     48 H15        -2.4840   -6.7723    1.4374 H         1 <0>         0.0916
     49 H16        -2.6689   -7.1722   -0.2876 H         1 <0>         0.0415
     50 H17         0.6845  -10.2599   -2.1897 H         1 <0>         0.1414
     51 H18         0.1613  -12.4005   -3.2851 H         1 <0>         0.1444
     52 H19        -2.8221  -10.6488    0.2272 H         1 <0>         0.1537
     53 H20        -4.6412  -12.7243   -2.8387 H         1 <0>         0.4164
     54 H21        -5.7609  -13.6189   -1.9619 H         1 <0>         0.4231
     55 H22         0.5785   -4.0310    1.9127 H         1 <0>         0.3716
     56 H23        -2.5102   -0.6364    7.7346 H         1 <0>         0.1517
     57 H24        -1.2351    0.0229    6.6777 H         1 <0>         0.1264
     58 H25        -4.0199    2.2347    5.2670 H         1 <0>         0.4166
@<TRIPOS>BOND
     1    1    6 ar
     2    1    2 ar
     3    1   34 1
     4    2    3 ar
     5    2   35 1
     6    3   33 1
     7    3    4 ar
     8    4    5 ar
     9    4   29 1
    10    5    6 ar
    11    5    7 1
    12    6   36 1
    13    7    8 1
    14    8    9 1
    15    8   37 1
    16    8   38 1
    17    9   10 1
    18    9   28 1
    19    9   39 1
    20   10   11 1
    21   10   40 1
    22   10   41 1
    23   11   16 1
    24   11   12 1
    25   12   13 1
    26   12   42 1
    27   12   43 1
    28   13   14 1
    29   13   44 1
    30   13   45 1
    31   14   15 1
    32   14   17 1
    33   15   16 1
    34   15   46 1
    35   15   47 1
    36   16   48 1
    37   16   49 1
    38   17   22 ar
    39   17   18 ar
    40   18   19 ar
    41   18   50 1
    42   19   20 ar
    43   19   51 1
    44   20   21 ar
    45   20   27 1
    46   21   22 ar
    47   21   23 1
    48   22   52 1
    49   23   24 2
    50   23   25 2
    51   23   26 1
    52   26   53 1
    53   26   54 1
    54   28   55 1
    55   29   30 1
    56   30   31 1
    57   30   56 1
    58   30   57 1
    59   31   32 2
    60   31   33 am
    61   33   58 1
@<TRIPOS>MOLECULE
CHEMBL40609__3
   59    62     0     0     0
SMALL
USER_CHARGES

@<TRIPOS>ATOM
      1 C1         -3.3152    0.9427    1.5044 C.ar      1 <0>        -0.0394
      2 C2         -3.9419    1.4449    2.6276 C.ar      1 <0>        -0.1679
      3 C3         -4.1738    0.6260    3.7287 C.ar      1 <0>         0.2042
      4 C4         -3.7617   -0.7048    3.6797 C.ar      1 <0>        -0.1687
      5 C5         -3.1337   -1.2075    2.5482 C.ar      1 <0>         0.1799
      6 C6         -2.9108   -0.3789    1.4583 C.ar      1 <0>        -0.2187
      7 O1         -2.7381   -2.5083    2.5085 O.3       1 <0>        -0.2870
      8 C7         -2.0984   -2.9555    1.3115 C.3       1 <0>         0.0286
      9 C8         -1.7283   -4.4334    1.4527 C.3       1 <0>         0.0858
     10 C9         -1.1572   -4.9449    0.1286 C.3       1 <0>        -0.0434
     11 N1         -0.8055   -6.3648    0.2630 N.4       1 <0>        -0.3775
     12 C10        -0.1159   -6.8136   -0.9532 C.3       1 <0>        -0.0220
     13 C11         0.3525   -8.2608   -0.7690 C.3       1 <0>         0.0984
     14 N2         -0.8081   -9.0820   -0.3909 N.pl3     1 <0>        -0.6423
     15 C12        -1.6542   -8.6170    0.7190 C.3       1 <0>         0.0943
     16 C13        -2.0279   -7.1530    0.4646 C.3       1 <0>        -0.0291
     17 C14        -1.0987  -10.2699   -1.0672 C.ar      1 <0>         0.1872
     18 C15        -0.2214  -10.7560   -2.0284 C.ar      1 <0>        -0.1187
     19 C16        -0.5109  -11.9302   -2.6947 C.ar      1 <0>        -0.0754
     20 C17        -1.6738  -12.6228   -2.4058 C.ar      1 <0>         0.0069
     21 C18        -2.5494  -12.1410   -1.4490 C.ar      1 <0>        -0.6210
     22 C19        -2.2623  -10.9696   -0.7755 C.ar      1 <0>        -0.0772
     23 S1         -4.0288  -13.0259   -1.0844 S.o2      1 <0>         2.6963
     24 O2         -3.6526  -14.3818   -0.8862 O.2       1 <0>        -0.9356
     25 O3         -4.7183  -12.2743   -0.0950 O.2       1 <0>        -0.9595
     26 N3         -4.9693  -12.9900   -2.4469 N.pl3     1 <0>        -1.2440
     27 Cl1        -2.0349  -14.0984   -3.2459 Cl        1 <0>        -0.0245
     28 O4         -0.7496   -4.5830    2.4831 O.3       1 <0>        -0.5396
     29 S2         -4.0440   -1.7444    5.0778 S.3       1 <0>        -0.0547
     30 C20        -3.9814   -0.5680    6.4630 C.3       1 <0>        -0.1349
     31 C21        -4.7577    0.6644    6.0865 C.2       1 <0>         0.5229
     32 O5         -5.3665    1.2471    6.9589 O.2       1 <0>        -0.5004
     33 N4         -4.8127    1.1503    4.8493 N.am      1 <0>        -0.6565
     34 H1         -3.1437    1.5856    0.6537 H         1 <0>         0.1407
     35 H2         -4.2540    2.4786    2.6517 H         1 <0>         0.1405
     36 H3         -2.4228   -0.7651    0.5756 H         1 <0>         0.1346
     37 H4         -2.7772   -2.8299    0.4680 H         1 <0>         0.0846
     38 H5         -1.1952   -2.3695    1.1415 H         1 <0>         0.0805
     39 H6         -2.6181   -5.0077    1.7106 H         1 <0>         0.1358
     40 H7         -1.9027   -4.8280   -0.6579 H         1 <0>         0.1454
     41 H8         -0.2657   -4.3724   -0.1278 H         1 <0>         0.1413
     42 H9         -0.7997   -6.7579   -1.8003 H         1 <0>         0.1352
     43 H10         0.7464   -6.1734   -1.1393 H         1 <0>         0.1439
     44 H11         0.7743   -8.6311   -1.7034 H         1 <0>         0.1283
     45 H12         1.1046   -8.3050    0.0187 H         1 <0>         0.0944
     46 H13        -2.5591   -9.2227    0.7684 H         1 <0>         0.1315
     47 H14        -1.1047   -8.6971    1.6570 H         1 <0>         0.0979
     48 H15        -2.5744   -6.7629    1.3232 H         1 <0>         0.1463
     49 H16        -2.6538   -7.0870   -0.4253 H         1 <0>         0.1368
     50 H17         0.6860  -10.2158   -2.2545 H         1 <0>         0.1432
     51 H18         0.1706  -12.3084   -3.4423 H         1 <0>         0.1523
     52 H19        -2.9439  -10.5963   -0.0256 H         1 <0>         0.1547
     53 H20        -4.6541  -12.5321   -3.2419 H         1 <0>         0.4164
     54 H21        -5.8354  -13.4267   -2.4501 H         1 <0>         0.4271
     55 H22         0.0708   -4.0978    2.3198 H         1 <0>         0.3901
     56 H23        -4.4246   -1.0227    7.3490 H         1 <0>         0.1544
     57 H24        -2.9450   -0.2989    6.6673 H         1 <0>         0.1284
     58 H25        -5.3498    1.9468    4.7149 H         1 <0>         0.4195
     59 H26        -0.1945   -6.4850    1.0569 H         1 <0>         0.4296
@<TRIPOS>BOND
     1    1    6 ar
     2    1    2 ar
     3    1   34 1
     4    2    3 ar
     5    2   35 1
     6    3   33 1
     7    3    4 ar
     8    4    5 ar
     9    4   29 1
    10    5    6 ar
    11    5    7 1
    12    6   36 1
    13    7    8 1
    14    8    9 1
    15    8   37 1
    16    8   38 1
    17    9   10 1
    18    9   28 1
    19    9   39 1
    20   10   11 1
    21   10   40 1
    22   10   41 1
    23   11   16 1
    24   11   12 1
    25   11   59 1
    26   12   13 1
    27   12   42 1
    28   12   43 1
    29   13   14 1
    30   13   44 1
    31   13   45 1
    32   14   15 1
    33   14   17 1
    34   15   16 1
    35   15   46 1
    36   15   47 1
    37   16   48 1
    38   16   49 1
    39   17   22 ar
    40   17   18 ar
    41   18   19 ar
    42   18   50 1
    43   19   20 ar
    44   19   51 1
    45   20   21 ar
    46   20   27 1
    47   21   22 ar
    48   21   23 1
    49   22   52 1
    50   23   24 2
    51   23   25 2
    52   23   26 1
    53   26   53 1
    54   26   54 1
    55   28   55 1
    56   29   30 1
    57   30   31 1
    58   30   56 1
    59   30   57 1
    60   31   32 2
    61   31   33 am
    62   33   58 1
@<TRIPOS>MOLECULE
CHEMBL317163
   59    62     0     0     0
SMALL
USER_CHARGES

@<TRIPOS>ATOM
      1 C1         -0.0164    1.3568    0.0095 C.ar      1 <0>        -0.0994
      2 C2          1.1685    2.0903    0.0021 C.ar      1 <0>        -0.1193
      3 C3          2.3786    1.4667   -0.0127 C.ar      1 <0>        -0.0919
      4 C4          2.4373    0.0638   -0.0208 C.ar      1 <0>        -0.0666
      5 C5          1.2329   -0.6827   -0.0133 C.ar      1 <0>        -0.0208
      6 C6          0.0021   -0.0041    0.0020 C.ar      1 <0>        -0.1125
      7 C7          1.2917   -2.0866   -0.0208 C.ar      1 <0>        -0.1295
      8 C8          2.5010   -2.7126   -0.0352 C.ar      1 <0>        -0.0845
      9 C9          3.6868   -1.9838   -0.0426 C.ar      1 <0>        -0.2162
     10 C10         3.6713   -0.6172   -0.0357 C.ar      1 <0>         0.1355
     11 O1          4.8369    0.0798   -0.0435 O.3       1 <0>        -0.2974
     12 C11         6.0470   -0.6800   -0.0585 C.3       1 <0>         0.0291
     13 C12         7.2459    0.2705   -0.0655 C.3       1 <0>         0.0852
     14 C13         8.5370   -0.5381   -0.2073 C.3       1 <0>        -0.0406
     15 N1          9.6881    0.3746   -0.2139 N.4       1 <0>        -0.4991
     16 C14        10.9278   -0.4018   -0.3501 C.3       1 <0>        -0.0214
     17 C15        12.1267    0.5487   -0.3570 C.3       1 <0>         0.0946
     18 N2         13.3629   -0.2255   -0.4928 N.am      1 <0>        -0.7328
     19 C16        14.5534    0.4056   -0.5226 C.2       1 <0>         0.5732
     20 O2         14.6014    1.6174   -0.4368 O.2       1 <0>        -0.5167
     21 C17        15.7995   -0.3748   -0.6594 C.ar      1 <0>        -0.1610
     22 C18        15.7459   -1.7669   -0.7639 C.ar      1 <0>        -0.0534
     23 C19        16.9101   -2.4915   -0.8919 C.ar      1 <0>        -0.1455
     24 C20        18.1377   -1.8391   -0.9172 C.ar      1 <0>         0.1823
     25 C21        18.1949   -0.4538   -0.8130 C.ar      1 <0>        -0.1415
     26 C22        17.0345    0.2777   -0.6905 C.ar      1 <0>        -0.0213
     27 N3         19.3180   -2.5783   -1.0473 N.pl3     1 <0>        -0.4235
     28 C23        20.5944   -2.0773   -1.0817 C.2       1 <0>        -0.0536
     29 C24        21.4227   -3.1300   -1.2167 C.2       1 <0>        -0.0108
     30 N4         20.6789   -4.2455   -1.2639 N.2       1 <0>        -0.4756
     31 C25        19.4174   -3.9293   -1.1575 C.2       1 <0>         0.1929
     32 O3          7.2771    1.0069    1.1588 O.3       1 <0>        -0.5424
     33 H1         -0.9633    1.8759    0.0259 H         1 <0>         0.1294
     34 H2          1.1262    3.1695    0.0079 H         1 <0>         0.1278
     35 H3          3.2887    2.0480   -0.0187 H         1 <0>         0.1300
     36 H4         -0.9241   -0.5596    0.0082 H         1 <0>         0.1343
     37 H5          0.3810   -2.6672   -0.0149 H         1 <0>         0.1331
     38 H6          2.5405   -3.7919   -0.0406 H         1 <0>         0.1282
     39 H7          4.6324   -2.5056   -0.0537 H         1 <0>         0.1232
     40 H8          6.0900   -1.3125    0.8281 H         1 <0>         0.0783
     41 H9          6.0731   -1.3042   -0.9517 H         1 <0>         0.0832
     42 H10         7.1565    0.9621   -0.9033 H         1 <0>         0.1375
     43 H11         8.6265   -1.2296    0.6305 H         1 <0>         0.1422
     44 H12         8.5133   -1.0998   -1.1411 H         1 <0>         0.1495
     45 H13         9.6053    1.0147   -0.9895 H         1 <0>         0.4351
     46 H14        11.0172   -1.0933    0.4877 H         1 <0>         0.1411
     47 H15        10.9040   -0.9635   -1.2839 H         1 <0>         0.1417
     48 H16        12.0372    1.2403   -1.1948 H         1 <0>         0.0938
     49 H17        12.1504    1.1104    0.5768 H         1 <0>         0.0938
     50 H18        13.3247   -1.1923   -0.5612 H         1 <0>         0.4074
     51 H19        14.7927   -2.2743   -0.7440 H         1 <0>         0.1338
     52 H20        16.8695   -3.5677   -0.9724 H         1 <0>         0.1429
     53 H21        19.1503    0.0496   -0.8326 H         1 <0>         0.1444
     54 H22        17.0793    1.3541   -0.6145 H         1 <0>         0.1497
     55 H23        20.8800   -1.0380   -1.0140 H         1 <0>         0.1831
     56 H24        22.5001   -3.0843   -1.2766 H         1 <0>         0.1808
     57 H25        18.5908   -4.6243   -1.1599 H         1 <0>         0.2119
     58 H26         7.3557    0.4542    1.9483 H         1 <0>         0.3908
     59 H27         9.7101    0.8945    0.6505 H         1 <0>         0.4374
@<TRIPOS>BOND
     1    1    6 ar
     2    1    2 ar
     3    1   33 1
     4    2    3 ar
     5    2   34 1
     6    3    4 ar
     7    3   35 1
     8    4   10 ar
     9    4    5 ar
    10    5    6 ar
    11    5    7 ar
    12    6   36 1
    13    7    8 ar
    14    7   37 1
    15    8    9 ar
    16    8   38 1
    17    9   10 ar
    18    9   39 1
    19   10   11 1
    20   11   12 1
    21   12   13 1
    22   12   40 1
    23   12   41 1
    24   13   14 1
    25   13   32 1
    26   13   42 1
    27   14   15 1
    28   14   43 1
    29   14   44 1
    30   15   16 1
    31   15   45 1
    32   15   59 1
    33   16   17 1
    34   16   46 1
    35   16   47 1
    36   17   18 1
    37   17   48 1
    38   17   49 1
    39   18   19 am
    40   18   50 1
    41   19   20 2
    42   19   21 1
    43   21   26 ar
    44   21   22 ar
    45   22   23 ar
    46   22   51 1
    47   23   24 ar
    48   23   52 1
    49   24   25 ar
    50   24   27 1
    51   25   26 ar
    52   25   53 1
    53   26   54 1
    54   27   31 1
    55   27   28 1
    56   28   29 2
    57   28   55 1
    58   29   30 1
    59   29   56 1
    60   30   31 2
    61   31   57 1
    62   32   58 1
@<TRIPOS>MOLECULE
CHEMBL317163__1
   59    62     0     0     0
SMALL
USER_CHARGES

@<TRIPOS>ATOM
      1 C1         -0.0164    1.3568    0.0095 C.ar      1 <0>        -0.0995
      2 C2          1.1685    2.0903    0.0021 C.ar      1 <0>        -0.1193
      3 C3          2.3786    1.4667   -0.0127 C.ar      1 <0>        -0.0919
      4 C4          2.4373    0.0638   -0.0208 C.ar      1 <0>        -0.0666
      5 C5          1.2329   -0.6827   -0.0133 C.ar      1 <0>        -0.0208
      6 C6          0.0021   -0.0041    0.0020 C.ar      1 <0>        -0.1125
      7 C7          1.2917   -2.0866   -0.0208 C.ar      1 <0>        -0.1295
      8 C8          2.5010   -2.7126   -0.0352 C.ar      1 <0>        -0.0845
      9 C9          3.6868   -1.9838   -0.0426 C.ar      1 <0>        -0.2162
     10 C10         3.6713   -0.6172   -0.0357 C.ar      1 <0>         0.1354
     11 O1          4.8369    0.0798   -0.0435 O.3       1 <0>        -0.2974
     12 C11         6.0470   -0.6800   -0.0585 C.3       1 <0>         0.0290
     13 C12         7.2459    0.2705   -0.0655 C.3       1 <0>         0.0854
     14 C13         8.5394   -0.5393    0.0442 C.3       1 <0>        -0.0404
     15 N1          9.6823    0.3766    0.1580 N.4       1 <0>        -0.4996
     16 C14        10.9243   -0.4009    0.2633 C.3       1 <0>        -0.0214
     17 C15        12.1146    0.5530    0.3818 C.3       1 <0>         0.0946
     18 N2         13.3532   -0.2224    0.4868 N.am      1 <0>        -0.7328
     19 C16        14.5372    0.4112    0.6015 C.2       1 <0>         0.5733
     20 O2         14.5774    1.6262    0.6178 O.2       1 <0>        -0.5167
     21 C17        15.7855   -0.3703    0.7073 C.ar      1 <0>        -0.1610
     22 C18        15.7418   -1.7665    0.6829 C.ar      1 <0>        -0.0533
     23 C19        16.9082   -2.4921    0.7814 C.ar      1 <0>        -0.1456
     24 C20        18.1283   -1.8368    0.9049 C.ar      1 <0>         0.1824
     25 C21        18.1756   -0.4474    0.9300 C.ar      1 <0>        -0.1415
     26 C22        17.0138    0.2848    0.8262 C.ar      1 <0>        -0.0213
     27 N3         19.3107   -2.5770    1.0047 N.pl3     1 <0>        -0.4235
     28 C23        20.5797   -2.0732    1.1361 C.2       1 <0>        -0.0536
     29 C24        21.4137   -3.1283    1.1964 C.2       1 <0>        -0.0107
     30 N4         20.6805   -4.2481    1.1049 N.2       1 <0>        -0.4755
     31 C25        19.4193   -3.9318    0.9956 C.2       1 <0>         0.1929
     32 O3          7.2539    1.0183   -1.2832 O.3       1 <0>        -0.5418
     33 H1         -0.9633    1.8759    0.0259 H         1 <0>         0.1294
     34 H2          1.1262    3.1695    0.0079 H         1 <0>         0.1278
     35 H3          3.2887    2.0480   -0.0187 H         1 <0>         0.1300
     36 H4         -0.9241   -0.5596    0.0082 H         1 <0>         0.1343
     37 H5          0.3810   -2.6672   -0.0149 H         1 <0>         0.1331
     38 H6          2.5405   -3.7919   -0.0406 H         1 <0>         0.1282
     39 H7          4.6324   -2.5056   -0.0537 H         1 <0>         0.1232
     40 H8          6.0900   -1.3125    0.8281 H         1 <0>         0.0829
     41 H9          6.0731   -1.3042   -0.9517 H         1 <0>         0.0786
     42 H10         7.1725    0.9542    0.7803 H         1 <0>         0.1365
     43 H11         8.4953   -1.1767    0.9272 H         1 <0>         0.1489
     44 H12         8.6571   -1.1583   -0.8453 H         1 <0>         0.1428
     45 H13         9.7232    0.9667   -0.6595 H         1 <0>         0.4379
     46 H14        10.8801   -1.0383    1.1463 H         1 <0>         0.1417
     47 H15        11.0419   -1.0199   -0.6262 H         1 <0>         0.1412
     48 H16        12.1588    1.1905   -0.5012 H         1 <0>         0.0938
     49 H17        11.9970    1.1720    1.2713 H         1 <0>         0.0937
     50 H18        13.3211   -1.1917    0.4738 H         1 <0>         0.4074
     51 H19        14.7944   -2.2761    0.5873 H         1 <0>         0.1338
     52 H20        16.8751   -3.5714    0.7630 H         1 <0>         0.1429
     53 H21        19.1250    0.0582    1.0264 H         1 <0>         0.1443
     54 H22        17.0517    1.3641    0.8409 H         1 <0>         0.1497
     55 H23        20.8566   -1.0304    1.1820 H         1 <0>         0.1831
     56 H24        22.4876   -3.0814    1.3005 H         1 <0>         0.1808
     57 H25        18.5994   -4.6295    0.9093 H         1 <0>         0.2119
     58 H26         7.3175    0.4730   -2.0792 H         1 <0>         0.3912
     59 H27         9.5734    0.9496    0.9813 H         1 <0>         0.4348
@<TRIPOS>BOND
     1    1    6 ar
     2    1    2 ar
     3    1   33 1
     4    2    3 ar
     5    2   34 1
     6    3    4 ar
     7    3   35 1
     8    4   10 ar
     9    4    5 ar
    10    5    6 ar
    11    5    7 ar
    12    6   36 1
    13    7    8 ar
    14    7   37 1
    15    8    9 ar
    16    8   38 1
    17    9   10 ar
    18    9   39 1
    19   10   11 1
    20   11   12 1
    21   12   13 1
    22   12   40 1
    23   12   41 1
    24   13   14 1
    25   13   32 1
    26   13   42 1
    27   14   15 1
    28   14   43 1
    29   14   44 1
    30   15   16 1
    31   15   45 1
    32   15   59 1
    33   16   17 1
    34   16   46 1
    35   16   47 1
    36   17   18 1
    37   17   48 1
    38   17   49 1
    39   18   19 am
    40   18   50 1
    41   19   20 2
    42   19   21 1
    43   21   26 ar
    44   21   22 ar
    45   22   23 ar
    46   22   51 1
    47   23   24 ar
    48   23   52 1
    49   24   25 ar
    50   24   27 1
    51   25   26 ar
    52   25   53 1
    53   26   54 1
    54   27   31 1
    55   27   28 1
    56   28   29 2
    57   28   55 1
    58   29   30 1
    59   29   56 1
    60   30   31 2
    61   31   57 1
    62   32   58 1
@<TRIPOS>MOLECULE
CHEMBL40343
   59    61     0     0     0
SMALL
USER_CHARGES

@<TRIPOS>ATOM
      1 C1         -0.0167    1.3775    0.0096 C.ar      1 <0>        -0.0463
      2 C2          1.1686    2.0877    0.0021 C.ar      1 <0>        -0.1794
      3 C3          2.3824    1.4132   -0.0129 C.ar      1 <0>         0.2052
      4 C4          2.4028    0.0254   -0.0203 C.ar      1 <0>        -0.1521
      5 C5          1.2127   -0.6836   -0.0127 C.ar      1 <0>         0.1552
      6 C6          0.0021   -0.0041    0.0020 C.ar      1 <0>        -0.2308
      7 O1          1.2301   -2.0424   -0.0207 O.3       1 <0>        -0.2967
      8 C7         -0.0346   -2.7076   -0.0121 C.3       1 <0>         0.0298
      9 C8          0.1854   -4.2216   -0.0229 C.3       1 <0>         0.0848
     10 C9         -1.1646   -4.9323   -0.1395 C.3       1 <0>        -0.0409
     11 N1         -0.9534   -6.3860   -0.1499 N.4       1 <0>        -0.4994
     12 C10        -2.2495   -7.0683   -0.2618 C.3       1 <0>        -0.0212
     13 C11        -2.0295   -8.5824   -0.2726 C.3       1 <0>         0.0938
     14 N2         -3.3221   -9.2628   -0.3843 N.am      1 <0>        -0.7317
     15 C12        -3.3746  -10.6093   -0.4129 C.2       1 <0>         0.5721
     16 O2         -2.3494  -11.2590   -0.3461 O.2       1 <0>        -0.5059
     17 C13        -4.6785  -11.2957   -0.5255 C.ar      1 <0>        -0.1630
     18 C14        -5.8573  -10.5519   -0.6083 C.ar      1 <0>        -0.0190
     19 C15        -7.0708  -11.1979   -0.7137 C.ar      1 <0>        -0.1328
     20 C16        -7.1220  -12.5820   -0.7376 C.ar      1 <0>         0.0809
     21 C17        -5.9562  -13.3251   -0.6559 C.ar      1 <0>        -0.6800
     22 C18        -4.7360  -12.6901   -0.5555 C.ar      1 <0>         0.0564
     23 S1         -6.0314  -15.0853   -0.6870 S.o2      1 <0>         2.6967
     24 O3         -6.8600  -15.4369   -1.7866 O.2       1 <0>        -0.9368
     25 O4         -4.6950  -15.5512   -0.5607 O.2       1 <0>        -0.9468
     26 N3         -6.8314  -15.5654    0.6811 N.pl3     1 <0>        -1.2412
     27 Cl1        -8.6537  -13.3884   -0.8699 Cl        1 <0>        -0.0107
     28 O5          0.8292   -4.6181    1.1897 O.3       1 <0>        -0.5421
     29 C19         3.7199   -0.7056   -0.0361 C.3       1 <0>        -0.0669
     30 C20         4.7397    0.0961   -0.8456 C.3       1 <0>        -0.1400
     31 C21         4.7292    1.5343   -0.4022 C.2       1 <0>         0.5196
     32 O6          5.7651    2.1650   -0.3887 O.2       1 <0>        -0.5128
     33 N4          3.5838    2.1285   -0.0211 N.am      1 <0>        -0.6646
     34 H1         -0.9598    1.9034    0.0259 H         1 <0>         0.1357
     35 H2          1.1510    3.1676    0.0076 H         1 <0>         0.1358
     36 H3         -0.9262   -0.5561    0.0078 H         1 <0>         0.1275
     37 H4         -0.5866   -2.4270    0.8849 H         1 <0>         0.0789
     38 H5         -0.6040   -2.4168   -0.8949 H         1 <0>         0.0838
     39 H6          0.8127   -4.4916   -0.8724 H         1 <0>         0.1378
     40 H7         -1.7919   -4.6623    0.7100 H         1 <0>         0.1422
     41 H8         -1.6557   -4.6299   -1.0644 H         1 <0>         0.1495
     42 H9         -0.3727   -6.6359   -0.9363 H         1 <0>         0.4355
     43 H10        -2.8768   -6.7983    0.5877 H         1 <0>         0.1413
     44 H11        -2.7406   -6.7659   -1.1867 H         1 <0>         0.1420
     45 H12        -1.4022   -8.8523   -1.1222 H         1 <0>         0.0958
     46 H13        -1.5384   -8.8848    0.6523 H         1 <0>         0.0958
     47 H14        -4.1401   -8.7443   -0.4376 H         1 <0>         0.4074
     48 H15        -5.8187   -9.4727   -0.5894 H         1 <0>         0.1427
     49 H16        -7.9833  -10.6236   -0.7774 H         1 <0>         0.1571
     50 H17        -3.8272  -13.2706   -0.4963 H         1 <0>         0.1707
     51 H18        -7.3546  -16.3822    0.6755 H         1 <0>         0.4280
     52 H19        -6.7769  -15.0299    1.4880 H         1 <0>         0.4179
     53 H20         0.3265   -4.4085    1.9887 H         1 <0>         0.3908
     54 H21         4.0807   -0.8259    0.9854 H         1 <0>         0.0833
     55 H22         3.5853   -1.6867   -0.4914 H         1 <0>         0.0939
     56 H23         5.7341   -0.3229   -0.6916 H         1 <0>         0.1136
     57 H24         4.4852    0.0417   -1.9040 H         1 <0>         0.1052
     58 H25         3.5918    3.0597    0.2506 H         1 <0>         0.4165
     59 H26        -0.4988   -6.6659    0.7063 H         1 <0>         0.4377
@<TRIPOS>BOND
     1    1    6 ar
     2    1    2 ar
     3    1   34 1
     4    2    3 ar
     5    2   35 1
     6    3   33 1
     7    3    4 ar
     8    4    5 ar
     9    4   29 1
    10    5    6 ar
    11    5    7 1
    12    6   36 1
    13    7    8 1
    14    8    9 1
    15    8   37 1
    16    8   38 1
    17    9   10 1
    18    9   28 1
    19    9   39 1
    20   10   11 1
    21   10   40 1
    22   10   41 1
    23   11   12 1
    24   11   42 1
    25   11   59 1
    26   12   13 1
    27   12   43 1
    28   12   44 1
    29   13   14 1
    30   13   45 1
    31   13   46 1
    32   14   15 am
    33   14   47 1
    34   15   16 2
    35   15   17 1
    36   17   22 ar
    37   17   18 ar
    38   18   19 ar
    39   18   48 1
    40   19   20 ar
    41   19   49 1
    42   20   21 ar
    43   20   27 1
    44   21   22 ar
    45   21   23 1
    46   22   50 1
    47   23   24 2
    48   23   25 2
    49   23   26 1
    50   26   51 1
    51   26   52 1
    52   28   53 1
    53   29   30 1
    54   29   54 1
    55   29   55 1
    56   30   31 1
    57   30   56 1
    58   30   57 1
    59   31   32 2
    60   31   33 am
    61   33   58 1
@<TRIPOS>MOLECULE
CHEMBL40343__1
   59    61     0     0     0
SMALL
USER_CHARGES

@<TRIPOS>ATOM
      1 C1         -0.0167    1.3775    0.0096 C.ar      1 <0>        -0.0463
      2 C2          1.1686    2.0877    0.0021 C.ar      1 <0>        -0.1794
      3 C3          2.3824    1.4132   -0.0129 C.ar      1 <0>         0.2053
      4 C4          2.4028    0.0254   -0.0203 C.ar      1 <0>        -0.1521
      5 C5          1.2127   -0.6836   -0.0127 C.ar      1 <0>         0.1552
      6 C6          0.0021   -0.0041    0.0020 C.ar      1 <0>        -0.2308
      7 O1          1.2301   -2.0424   -0.0207 O.3       1 <0>        -0.2967
      8 C7         -0.0346   -2.7076   -0.0121 C.3       1 <0>         0.0298
      9 C8          0.1854   -4.2216   -0.0229 C.3       1 <0>         0.0850
     10 C9         -1.1621   -4.9337    0.1119 C.3       1 <0>        -0.0407
     11 N1         -0.9418   -6.3819    0.2219 N.4       1 <0>        -0.4999
     12 C10        -2.2355   -7.0656    0.3514 C.3       1 <0>        -0.0213
     13 C11        -2.0060   -8.5740    0.4659 C.3       1 <0>         0.0938
     14 N2         -3.2963   -9.2558    0.5950 N.am      1 <0>        -0.7317
     15 C12        -3.3406  -10.5979    0.7107 C.2       1 <0>         0.5721
     16 O2         -2.3101  -11.2426    0.7080 O.2       1 <0>        -0.5059
     17 C13        -4.6422  -11.2857    0.8409 C.ar      1 <0>        -0.1631
     18 C14        -5.8279  -10.5483    0.8386 C.ar      1 <0>        -0.0190
     19 C15        -7.0392  -11.1956    0.9600 C.ar      1 <0>        -0.1328
     20 C16        -7.0813  -12.5747    1.0840 C.ar      1 <0>         0.0808
     21 C17        -5.9086  -13.3114    1.0870 C.ar      1 <0>        -0.6800
     22 C18        -4.6913  -12.6756    0.9610 C.ar      1 <0>         0.0564
     23 S1         -5.9724  -15.0651    1.2453 S.o2      1 <0>         2.6967
     24 O3         -6.9352  -15.5230    0.3058 O.2       1 <0>        -0.9368
     25 O4         -4.6270  -15.5224    1.2417 O.2       1 <0>        -0.9468
     26 N3         -6.5817  -15.3992    2.7484 N.pl3     1 <0>        -1.2412
     27 Cl1        -8.6102  -13.3827    1.2370 Cl        1 <0>        -0.0107
     28 O5          0.8053   -4.6041   -1.2523 O.3       1 <0>        -0.5417
     29 C19         3.7199   -0.7056   -0.0361 C.3       1 <0>        -0.0677
     30 C20         4.7397    0.0961   -0.8456 C.3       1 <0>        -0.1398
     31 C21         4.7292    1.5343   -0.4022 C.2       1 <0>         0.5196
     32 O6          5.7651    2.1650   -0.3887 O.2       1 <0>        -0.5128
     33 N4          3.5838    2.1285   -0.0211 N.am      1 <0>        -0.6646
     34 H1         -0.9598    1.9034    0.0259 H         1 <0>         0.1357
     35 H2          1.1510    3.1676    0.0076 H         1 <0>         0.1358
     36 H3         -0.9262   -0.5561    0.0078 H         1 <0>         0.1275
     37 H4         -0.5866   -2.4270    0.8849 H         1 <0>         0.0835
     38 H5         -0.6040   -2.4168   -0.8949 H         1 <0>         0.0791
     39 H6          0.8291   -4.5012    0.8111 H         1 <0>         0.1369
     40 H7         -1.6747   -4.5754    1.0046 H         1 <0>         0.1489
     41 H8         -1.7729   -4.7248   -0.7663 H         1 <0>         0.1427
     42 H9         -0.4673   -6.7137   -0.6045 H         1 <0>         0.4383
     43 H10        -2.7481   -6.7073    1.2441 H         1 <0>         0.1419
     44 H11        -2.8464   -6.8567   -0.5269 H         1 <0>         0.1414
     45 H12        -1.4934   -8.9323   -0.4268 H         1 <0>         0.0958
     46 H13        -1.3952   -8.7829    1.3442 H         1 <0>         0.0957
     47 H14        -4.1186   -8.7414    0.5972 H         1 <0>         0.4074
     48 H15        -5.7963   -9.4731    0.7423 H         1 <0>         0.1427
     49 H16        -7.9570  -10.6263    0.9587 H         1 <0>         0.1571
     50 H17        -3.7777  -13.2515    0.9589 H         1 <0>         0.1707
     51 H18        -7.0941  -16.2097    2.8949 H         1 <0>         0.4280
     52 H19        -6.4263  -14.7845    3.4824 H         1 <0>         0.4178
     53 H20         0.2871   -4.3855   -2.0389 H         1 <0>         0.3913
     54 H21         4.0807   -0.8259    0.9854 H         1 <0>         0.0825
     55 H22         3.5853   -1.6867   -0.4914 H         1 <0>         0.0952
     56 H23         5.7341   -0.3229   -0.6916 H         1 <0>         0.1135
     57 H24         4.4852    0.0417   -1.9040 H         1 <0>         0.1056
     58 H25         3.5918    3.0597    0.2506 H         1 <0>         0.4165
     59 H26        -0.3763   -6.5753    1.0349 H         1 <0>         0.4351
@<TRIPOS>BOND
     1    1    6 ar
     2    1    2 ar
     3    1   34 1
     4    2    3 ar
     5    2   35 1
     6    3   33 1
     7    3    4 ar
     8    4    5 ar
     9    4   29 1
    10    5    6 ar
    11    5    7 1
    12    6   36 1
    13    7    8 1
    14    8    9 1
    15    8   37 1
    16    8   38 1
    17    9   10 1
    18    9   28 1
    19    9   39 1
    20   10   11 1
    21   10   40 1
    22   10   41 1
    23   11   12 1
    24   11   42 1
    25   11   59 1
    26   12   13 1
    27   12   43 1
    28   12   44 1
    29   13   14 1
    30   13   45 1
    31   13   46 1
    32   14   15 am
    33   14   47 1
    34   15   16 2
    35   15   17 1
    36   17   22 ar
    37   17   18 ar
    38   18   19 ar
    39   18   48 1
    40   19   20 ar
    41   19   49 1
    42   20   21 ar
    43   20   27 1
    44   21   22 ar
    45   21   23 1
    46   22   50 1
    47   23   24 2
    48   23   25 2
    49   23   26 1
    50   26   51 1
    51   26   52 1
    52   28   53 1
    53   29   30 1
    54   29   54 1
    55   29   55 1
    56   30   31 1
    57   30   56 1
    58   30   57 1
    59   31   32 2
    60   31   33 am
    61   33   58 1
@<TRIPOS>MOLECULE
CHEMBL273097
   49    51     0     0     0
SMALL
USER_CHARGES

@<TRIPOS>ATOM
      1 C1         -0.0167    1.3777    0.0096 C.ar      1 <0>        -0.0978
      2 C2          1.1710    2.0855    0.0021 C.ar      1 <0>        -0.0979
      3 C3          2.3777    1.4116   -0.0130 C.ar      1 <0>        -0.1293
      4 C4          2.3977    0.0294   -0.0210 C.ar      1 <0>        -0.0996
      5 C5          1.2098   -0.6793   -0.0135 C.ar      1 <0>        -0.0304
      6 C6          0.0021   -0.0041    0.0020 C.ar      1 <0>        -0.0924
      7 Cl1         1.2341   -2.4151   -0.0242 Cl        1 <0>        -0.0495
      8 C7          3.6718    2.1839   -0.0212 C.3       1 <0>         0.1363
      9 H1          3.5107    3.1675    0.4199 H         1 <0>         0.1353
     10 C8          4.1605    2.3449   -1.4621 C.3       1 <0>        -0.0434
     11 N1          5.4219    3.0977   -1.4701 N.4       1 <0>        -0.5052
     12 C9          5.8911    3.2523   -2.8536 C.3       1 <0>        -0.0082
     13 C10         7.2049    4.0363   -2.8619 C.3       1 <0>        -0.0951
     14 C11         7.6862    4.1950   -4.2811 C.ar      1 <0>        -0.1198
     15 C12         8.5151    3.2378   -4.8386 C.ar      1 <0>        -0.1110
     16 C13         8.9590    3.3776   -6.1376 C.ar      1 <0>        -0.0849
     17 C14         8.5706    4.4864   -6.8887 C.ar      1 <0>         0.0003
     18 C15         7.7350    5.4479   -6.3213 C.ar      1 <0>        -0.1071
     19 C16         7.2930    5.2943   -5.0232 C.ar      1 <0>        -0.1090
     20 C17         9.0443    4.6426   -8.2842 C.ar      1 <0>         0.1167
     21 C18         8.6528    5.7599   -9.0230 C.ar      1 <0>        -0.1680
     22 C19         9.0982    5.8988  -10.3216 C.ar      1 <0>        -0.0469
     23 C20         9.9336    4.9026  -10.8504 C.ar      1 <0>        -0.1625
     24 C21        10.2821    3.8125  -10.0478 C.ar      1 <0>         0.1302
     25 N2          9.8401    3.7203   -8.8129 N.ar      1 <0>        -0.4853
     26 C22        10.4357    5.0041  -12.2322 C.2       1 <0>         0.5205
     27 O1         10.1249    5.9616  -12.9270 O.co2     1 <0>        -0.6775
     28 O2         11.1632    4.1309  -12.6842 O.co2     1 <0>        -0.6756
     29 O3          4.6537    1.4761    0.7385 O.3       1 <0>        -0.5469
     30 H2         -0.9592    1.9048    0.0259 H         1 <0>         0.1424
     31 H3          1.1559    3.1654    0.0076 H         1 <0>         0.1354
     32 H4          3.3407   -0.4970   -0.0336 H         1 <0>         0.1337
     33 H5         -0.9257   -0.5568    0.0079 H         1 <0>         0.1425
     34 H6          4.3215    1.3613   -1.9032 H         1 <0>         0.1374
     35 H7          3.4115    2.8848   -2.0416 H         1 <0>         0.1458
     36 H8          5.2728    4.0082   -1.0618 H         1 <0>         0.4286
     37 H9          6.0522    2.2687   -3.2947 H         1 <0>         0.1339
     38 H10         5.1422    3.7921   -3.4330 H         1 <0>         0.1343
     39 H11         7.0438    5.0200   -2.4208 H         1 <0>         0.0938
     40 H12         7.9539    3.4965   -2.2824 H         1 <0>         0.0941
     41 H13         8.8155    2.3796   -4.2558 H         1 <0>         0.1234
     42 H14         9.6063    2.6299   -6.5716 H         1 <0>         0.1415
     43 H15         7.4312    6.3089   -6.8981 H         1 <0>         0.1330
     44 H16         6.6419    6.0359   -4.5843 H         1 <0>         0.1237
     45 H17         8.0084    6.5069   -8.5836 H         1 <0>         0.1286
     46 H18         8.8108    6.7531  -10.9167 H         1 <0>         0.1428
     47 H19        10.9243    3.0402  -10.4447 H         1 <0>         0.1682
     48 H20         4.8478    0.5905    0.4023 H         1 <0>         0.3893
     49 H21         6.1152    2.5980   -0.9337 H         1 <0>         0.4315
@<TRIPOS>BOND
     1    1    6 ar
     2    1    2 ar
     3    1   30 1
     4    2    3 ar
     5    2   31 1
     6    3    4 ar
     7    3    8 1
     8    4    5 ar
     9    4   32 1
    10    5    6 ar
    11    5    7 1
    12    6   33 1
    13    8    9 1
    14    8   10 1
    15    8   29 1
    16   10   11 1
    17   10   34 1
    18   10   35 1
    19   11   12 1
    20   11   36 1
    21   11   49 1
    22   12   13 1
    23   12   37 1
    24   12   38 1
    25   13   14 1
    26   13   39 1
    27   13   40 1
    28   14   19 ar
    29   14   15 ar
    30   15   16 ar
    31   15   41 1
    32   16   17 ar
    33   16   42 1
    34   17   18 ar
    35   17   20 1
    36   18   19 ar
    37   18   43 1
    38   19   44 1
    39   20   25 ar
    40   20   21 ar
    41   21   22 ar
    42   21   45 1
    43   22   23 ar
    44   22   46 1
    45   23   24 ar
    46   23   26 1
    47   24   25 ar
    48   24   47 1
    49   26   27 2
    50   26   28 1
    51   29   48 1
@<TRIPOS>MOLECULE
CHEMBL308150
   49    50     0     0     0
SMALL
USER_CHARGES

@<TRIPOS>ATOM
      1 C1         -0.0167    1.3784    0.0096 C.ar      1 <0>        -0.1493
      2 C2          1.1698    2.0883    0.0021 C.ar      1 <0>        -0.0770
      3 C3          2.3773    1.4175   -0.0134 C.ar      1 <0>        -0.1450
      4 C4          2.3989    0.0304   -0.0210 C.ar      1 <0>         0.1186
      5 C5          1.2070   -0.6796   -0.0130 C.ar      1 <0>        -0.2097
      6 C6          0.0021   -0.0041    0.0020 C.ar      1 <0>        -0.0804
      7 O1          3.5855   -0.6319   -0.0368 O.3       1 <0>        -0.3021
      8 C7          3.5315   -2.0598   -0.0438 C.3       1 <0>         0.0304
      9 C8          4.9536   -2.6239   -0.0615 C.3       1 <0>         0.0851
     10 H1          5.4999   -2.2055   -0.9067 H         1 <0>         0.1355
     11 C9          4.8964   -4.1471   -0.1947 C.3       1 <0>        -0.0416
     12 N1          6.2619   -4.6887   -0.2117 N.4       1 <0>        -0.5043
     13 C10         6.2070   -6.1510   -0.3396 C.3       1 <0>         0.0022
     14 C11         7.6291   -6.7151   -0.3573 C.3       1 <0>         0.0251
     15 O2          8.2548   -6.4692    0.9037 O.3       1 <0>        -0.3318
     16 C12         9.5320   -6.9104    1.0557 C.ar      1 <0>         0.0461
     17 C13        10.1700   -7.5611    0.0100 C.ar      1 <0>        -0.1573
     18 C14        11.4674   -8.0094    0.1643 C.ar      1 <0>        -0.1250
     19 C15        12.1323   -7.8084    1.3648 C.ar      1 <0>         0.1295
     20 C16        11.4947   -7.1569    2.4101 C.ar      1 <0>        -0.1808
     21 C17        10.1988   -6.7048    2.2543 C.ar      1 <0>        -0.0934
     22 O3         13.4093   -8.2504    1.5170 O.3       1 <0>        -0.2757
     23 C18        14.0331   -8.0093    2.7799 C.3       1 <0>        -0.0099
     24 C19        15.4337   -8.5651    2.7626 C.2       1 <0>         0.4998
     25 O4         15.8584   -9.1166    1.7616 O.co2     1 <0>        -0.6687
     26 O5         16.1422   -8.4633    3.7496 O.co2     1 <0>        -0.6811
     27 O6          5.6188   -2.2768    1.1546 O.3       1 <0>        -0.5415
     28 H2         -0.9596    1.9047    0.0260 H         1 <0>         0.1286
     29 H3          1.1525    3.1682    0.0080 H         1 <0>         0.1344
     30 H4          3.3038    1.9724   -0.0200 H         1 <0>         0.1334
     31 H5          1.2211   -1.7595   -0.0193 H         1 <0>         0.1239
     32 H6         -0.9260   -0.5563    0.0082 H         1 <0>         0.1279
     33 H7          3.0134   -2.4083    0.8497 H         1 <0>         0.0765
     34 H8          2.9951   -2.3988   -0.9302 H         1 <0>         0.0810
     35 H9          4.3501   -4.5655    0.6505 H         1 <0>         0.1399
     36 H10         4.3890   -4.4118   -1.1224 H         1 <0>         0.1465
     37 H11         6.7676   -4.3013   -0.9941 H         1 <0>         0.4305
     38 H12         5.6606   -6.5695    0.5056 H         1 <0>         0.1422
     39 H13         5.6996   -6.4158   -1.2672 H         1 <0>         0.1496
     40 H14         7.5918   -7.7889   -0.5411 H         1 <0>         0.1087
     41 H15         8.2023   -6.2309   -1.1479 H         1 <0>         0.0850
     42 H16         9.6522   -7.7176   -0.9248 H         1 <0>         0.1275
     43 H17        11.9638   -8.5167   -0.6496 H         1 <0>         0.1387
     44 H18        12.0124   -7.0007    3.3450 H         1 <0>         0.1413
     45 H19         9.7036   -6.1942    3.0670 H         1 <0>         0.1301
     46 H20        14.0702   -6.9363    2.9678 H         1 <0>         0.0622
     47 H21        13.4586   -8.4964    3.5678 H         1 <0>         0.0624
     48 H22         5.1868   -2.6168    1.9502 H         1 <0>         0.3904
     49 H23         6.7316   -4.4435    0.6470 H         1 <0>         0.4418
@<TRIPOS>BOND
     1    1    6 ar
     2    1    2 ar
     3    1   28 1
     4    2    3 ar
     5    2   29 1
     6    3    4 ar
     7    3   30 1
     8    4    5 ar
     9    4    7 1
    10    5    6 ar
    11    5   31 1
    12    6   32 1
    13    7    8 1
    14    8    9 1
    15    8   33 1
    16    8   34 1
    17    9   10 1
    18    9   11 1
    19    9   27 1
    20   11   12 1
    21   11   35 1
    22   11   36 1
    23   12   13 1
    24   12   37 1
    25   12   49 1
    26   13   14 1
    27   13   38 1
    28   13   39 1
    29   14   15 1
    30   14   40 1
    31   14   41 1
    32   15   16 1
    33   16   21 ar
    34   16   17 ar
    35   17   18 ar
    36   17   42 1
    37   18   19 ar
    38   18   43 1
    39   19   20 ar
    40   19   22 1
    41   20   21 ar
    42   20   44 1
    43   21   45 1
    44   22   23 1
    45   23   24 1
    46   23   46 1
    47   23   47 1
    48   24   25 2
    49   24   26 1
    50   27   48 1
@<TRIPOS>MOLECULE
CHEMBL308150__1
   48    49     0     0     0
SMALL
USER_CHARGES

@<TRIPOS>ATOM
      1 C1         -0.0167    1.3784    0.0096 C.ar      1 <0>        -0.1608
      2 C2          1.1698    2.0883    0.0021 C.ar      1 <0>        -0.0802
      3 C3          2.3773    1.4175   -0.0134 C.ar      1 <0>        -0.1519
      4 C4          2.3989    0.0304   -0.0210 C.ar      1 <0>         0.1298
      5 C5          1.2070   -0.6796   -0.0130 C.ar      1 <0>        -0.2121
      6 C6          0.0021   -0.0041    0.0020 C.ar      1 <0>        -0.0809
      7 O1          3.5855   -0.6319   -0.0368 O.3       1 <0>        -0.3023
      8 C7          3.5315   -2.0598   -0.0438 C.3       1 <0>         0.0282
      9 C8          4.9536   -2.6239   -0.0615 C.3       1 <0>         0.1142
     10 H1          5.4999   -2.2055   -0.9067 H         1 <0>         0.1070
     11 C9          4.8964   -4.1471   -0.1947 C.3       1 <0>         0.0309
     12 N1          6.2619   -4.6887   -0.2117 N.3       1 <0>        -0.6705
     13 C10         6.2462   -6.1521   -0.3388 C.3       1 <0>         0.0620
     14 C11         7.6828   -6.6782   -0.3529 C.3       1 <0>         0.0634
     15 O2          8.2988   -6.4150    0.9094 O.3       1 <0>        -0.3013
     16 C12         9.5870   -6.8221    1.0645 C.ar      1 <0>         0.0737
     17 C13        10.2444   -7.4561    0.0207 C.ar      1 <0>        -0.1693
     18 C14        11.5529   -7.8697    0.1783 C.ar      1 <0>        -0.1237
     19 C15        12.2095   -7.6504    1.3802 C.ar      1 <0>         0.1068
     20 C16        11.5524   -7.0155    2.4237 C.ar      1 <0>        -0.1782
     21 C17        10.2453   -6.5981    2.2646 C.ar      1 <0>        -0.1066
     22 O3         13.4974   -8.0583    1.5356 O.3       1 <0>        -0.2833
     23 C18        14.1116   -7.8000    2.7998 C.3       1 <0>        -0.0066
     24 C19        15.5266   -8.3184    2.7860 C.2       1 <0>         0.5011
     25 O4         15.9681   -8.8589    1.7863 O.co2     1 <0>        -0.6720
     26 O5         16.2298   -8.1972    3.7745 O.co2     1 <0>        -0.6884
     27 O6          5.6188   -2.2768    1.1546 O.3       1 <0>        -0.5344
     28 H2         -0.9596    1.9047    0.0260 H         1 <0>         0.1233
     29 H3          1.1525    3.1682    0.0080 H         1 <0>         0.1294
     30 H4          3.3038    1.9724   -0.0200 H         1 <0>         0.1316
     31 H5          1.2211   -1.7595   -0.0193 H         1 <0>         0.1258
     32 H6         -0.9260   -0.5563    0.0082 H         1 <0>         0.1240
     33 H7          3.0134   -2.4083    0.8497 H         1 <0>         0.0672
     34 H8          2.9951   -2.3988   -0.9302 H         1 <0>         0.0697
     35 H9          4.3501   -4.5655    0.6505 H         1 <0>         0.0799
     36 H10         4.3890   -4.4118   -1.1224 H         1 <0>         0.0403
     37 H11         6.8088   -4.2676   -0.9476 H         1 <0>         0.3450
     38 H12         5.7092   -6.5844    0.5054 H         1 <0>         0.0843
     39 H13         5.7481   -6.4308   -1.2675 H         1 <0>         0.0494
     40 H14         7.6745   -7.7526   -0.5361 H         1 <0>         0.0650
     41 H15         8.2448   -6.1793   -1.1425 H         1 <0>         0.0588
     42 H16         9.7331   -7.6269   -0.9151 H         1 <0>         0.1260
     43 H17        12.0645   -8.3640   -0.6342 H         1 <0>         0.1314
     44 H18        12.0636   -6.8451    3.3596 H         1 <0>         0.1343
     45 H19         9.7348   -6.1004    3.0759 H         1 <0>         0.1284
     46 H20        14.1198   -6.7262    2.9871 H         1 <0>         0.0589
     47 H21        13.5485   -8.3018    3.5866 H         1 <0>         0.0586
     48 H22         5.1868   -2.6168    1.9502 H         1 <0>         0.3743
@<TRIPOS>BOND
     1    1    6 ar
     2    1    2 ar
     3    1   28 1
     4    2    3 ar
     5    2   29 1
     6    3    4 ar
     7    3   30 1
     8    4    5 ar
     9    4    7 1
    10    5    6 ar
    11    5   31 1
    12    6   32 1
    13    7    8 1
    14    8    9 1
    15    8   33 1
    16    8   34 1
    17    9   10 1
    18    9   11 1
    19    9   27 1
    20   11   12 1
    21   11   35 1
    22   11   36 1
    23   12   13 1
    24   12   37 1
    25   13   14 1
    26   13   38 1
    27   13   39 1
    28   14   15 1
    29   14   40 1
    30   14   41 1
    31   15   16 1
    32   16   21 ar
    33   16   17 ar
    34   17   18 ar
    35   17   42 1
    36   18   19 ar
    37   18   43 1
    38   19   20 ar
    39   19   22 1
    40   20   21 ar
    41   20   44 1
    42   21   45 1
    43   22   23 1
    44   23   24 1
    45   23   46 1
    46   23   47 1
    47   24   25 2
    48   24   26 1
    49   27   48 1
@<TRIPOS>MOLECULE
CHEMBL274782
   53    54     0     0     0
SMALL
USER_CHARGES

@<TRIPOS>ATOM
      1 C1         -0.0187    1.5258    0.0104 C.3       1 <0>        -0.1852
      2 C2          0.0021   -0.0041    0.0020 C.3       1 <0>         0.0256
      3 H1         -1.0205   -0.3814    0.0098 H         1 <0>         0.1415
      4 C3          0.7182   -0.4975   -1.2568 C.3       1 <0>        -0.1433
      5 C4          0.6303   -2.0233   -1.3286 C.3       1 <0>        -0.0832
      6 C5          1.3357   -2.5093   -2.5685 C.ar      1 <0>        -0.1436
      7 C6          0.6366   -2.6385   -3.7544 C.ar      1 <0>        -0.0704
      8 C7          1.2808   -3.0842   -4.8922 C.ar      1 <0>        -0.1483
      9 C8          2.6304   -3.4019   -4.8444 C.ar      1 <0>         0.1398
     10 C9          3.3297   -3.2709   -3.6534 C.ar      1 <0>        -0.2063
     11 C10         2.6821   -2.8198   -2.5196 C.ar      1 <0>        -0.0737
     12 O1          3.2663   -3.8410   -5.9623 O.3       1 <0>        -0.3136
     13 C11         4.6562   -4.1494   -5.8393 C.3       1 <0>         0.0245
     14 N1          0.7126   -0.4907    1.1921 N.4       1 <0>        -0.5034
     15 C12        -0.0398   -0.1189    2.3978 C.3       1 <0>        -0.0462
     16 C13         0.7001   -0.6257    3.6373 C.3       1 <0>         0.0863
     17 H2          1.6931   -0.1778    3.6761 H         1 <0>         0.1357
     18 C14        -0.0835   -0.2384    4.8930 C.3       1 <0>         0.0293
     19 O2          0.6635   -0.6084    6.0537 O.3       1 <0>        -0.3010
     20 C15         0.1040   -0.3321    7.2619 C.ar      1 <0>         0.1088
     21 C16        -1.1403    0.2771    7.3269 C.ar      1 <0>        -0.1914
     22 C17        -1.7086    0.5579    8.5542 C.ar      1 <0>        -0.1061
     23 C18        -1.0351    0.2301    9.7215 C.ar      1 <0>         0.0804
     24 C19         0.2088   -0.3800    9.6565 C.ar      1 <0>        -0.1026
     25 C20         0.7752   -0.6646    8.4292 C.ar      1 <0>        -0.1260
     26 O3         -1.5941    0.5073   10.9297 O.3       1 <0>        -0.4957
     27 O4          0.8214   -2.0480    3.5713 O.3       1 <0>        -0.5434
     28 H3          1.0039    1.9031    0.0027 H         1 <0>         0.0838
     29 H4         -0.5459    1.8868   -0.8726 H         1 <0>         0.1087
     30 H5         -0.5289    1.8773    0.9072 H         1 <0>         0.0813
     31 H6          0.2444   -0.0644   -2.1377 H         1 <0>         0.1163
     32 H7          1.7648   -0.1951   -1.2215 H         1 <0>         0.0914
     33 H8          1.1041   -2.4564   -0.4477 H         1 <0>         0.0648
     34 H9         -0.4163   -2.3257   -1.3639 H         1 <0>         0.0863
     35 H10        -0.4140   -2.3911   -3.7910 H         1 <0>         0.1303
     36 H11         0.7342   -3.1857   -5.8181 H         1 <0>         0.1360
     37 H12         4.3804   -3.5176   -3.6137 H         1 <0>         0.1323
     38 H13         3.2271   -2.7135   -1.5932 H         1 <0>         0.1220
     39 H14         4.7893   -4.9373   -5.0980 H         1 <0>         0.0586
     40 H15         5.0400   -4.4875   -6.8018 H         1 <0>         0.1068
     41 H16         5.1995   -3.2585   -5.5241 H         1 <0>         0.0580
     42 H17         0.7982   -1.4950    1.1455 H         1 <0>         0.4311
     43 H18        -0.1324    0.9660    2.4481 H         1 <0>         0.1483
     44 H19        -1.0328   -0.5668    2.3589 H         1 <0>         0.1401
     45 H20        -0.2529    0.8383    4.8979 H         1 <0>         0.0820
     46 H21        -1.0422   -0.7571    4.8973 H         1 <0>         0.0770
     47 H22        -1.6647    0.5324    6.4179 H         1 <0>         0.1285
     48 H23        -2.6772    1.0329    8.6048 H         1 <0>         0.1353
     49 H24         0.7334   -0.6349   10.5655 H         1 <0>         0.1417
     50 H25         1.7421   -1.1430    8.3786 H         1 <0>         0.1387
     51 H26        -2.1450   -0.2056   11.2811 H         1 <0>         0.3940
     52 H27        -0.0252   -2.5137    3.5341 H         1 <0>         0.3899
     53 H28         1.6317   -0.0761    1.2281 H         1 <0>         0.4285
@<TRIPOS>BOND
     1    1    2 1
     2    1   28 1
     3    1   29 1
     4    1   30 1
     5    2    3 1
     6    2    4 1
     7    2   14 1
     8    4    5 1
     9    4   31 1
    10    4   32 1
    11    5    6 1
    12    5   33 1
    13    5   34 1
    14    6   11 ar
    15    6    7 ar
    16    7    8 ar
    17    7   35 1
    18    8    9 ar
    19    8   36 1
    20    9   10 ar
    21    9   12 1
    22   10   11 ar
    23   10   37 1
    24   11   38 1
    25   12   13 1
    26   13   39 1
    27   13   40 1
    28   13   41 1
    29   14   15 1
    30   14   42 1
    31   14   53 1
    32   15   16 1
    33   15   43 1
    34   15   44 1
    35   16   17 1
    36   16   18 1
    37   16   27 1
    38   18   19 1
    39   18   45 1
    40   18   46 1
    41   19   20 1
    42   20   25 ar
    43   20   21 ar
    44   21   22 ar
    45   21   47 1
    46   22   23 ar
    47   22   48 1
    48   23   24 ar
    49   23   26 1
    50   24   25 ar
    51   24   49 1
    52   25   50 1
    53   26   51 1
    54   27   52 1
@<TRIPOS>MOLECULE
CHEMBL1084707
   76    82     0     0     0
SMALL
USER_CHARGES

@<TRIPOS>ATOM
      1 C1         -0.0173    1.4248    0.0099 C.3       1 <0>         0.0216
      2 O1          0.0021   -0.0041    0.0020 O.3       1 <0>        -0.3091
      3 C2          0.6059   -0.6072   -1.0558 C.ar      1 <0>         0.1148
      4 C3          1.1652    0.1706   -2.0490 C.ar      1 <0>        -0.1512
      5 C4          1.7921   -0.4410   -3.1476 C.ar      1 <0>        -0.0362
      6 C5          2.3762    0.3076   -4.1851 C.ar      1 <0>        -0.0533
      7 C6          2.9742   -0.3288   -5.2342 C.ar      1 <0>        -0.1283
      8 C7          3.0252   -1.7159   -5.3104 C.ar      1 <0>        -0.0087
      9 C8          2.4615   -2.4905   -4.3077 C.ar      1 <0>        -0.1607
     10 C9          1.8371   -1.8496   -3.2129 C.ar      1 <0>        -0.0201
     11 C10         1.2596   -2.6324   -2.1877 C.ar      1 <0>        -0.1346
     12 C11         0.6529   -1.9999   -1.1133 C.ar      1 <0>        -0.0217
     13 C12         1.3279   -4.0979   -2.2945 C.2       1 <0>         0.5762
     14 O2          0.8376   -4.7909   -1.4237 O.2       1 <0>        -0.4894
     15 N1          1.9297   -4.6765   -3.3507 N.am      1 <0>        -0.5612
     16 C13         2.4898   -3.9602   -4.3438 C.2       1 <0>         0.5726
     17 O3          3.0213   -4.5320   -5.2762 O.2       1 <0>        -0.4861
     18 C14         1.9777   -6.1390   -3.4217 C.3       1 <0>         0.0994
     19 C15         0.7395   -6.6548   -4.1577 C.3       1 <0>        -0.1146
     20 C16        -0.5134   -6.3394   -3.3355 C.3       1 <0>        -0.1416
     21 C17        -1.7391   -6.9274   -4.0379 C.3       1 <0>        -0.0047
     22 N2         -1.5862   -8.3820   -4.1609 N.4       1 <0>        -0.3776
     23 C18        -0.4279   -8.6912   -5.0078 C.3       1 <0>        -0.0114
     24 C19         0.8483   -8.1711   -4.3427 C.3       1 <0>        -0.1365
     25 C20        -2.7984   -8.9510   -4.7649 C.3       1 <0>        -0.0432
     26 C21        -2.6926  -10.4773   -4.7797 C.3       1 <0>         0.0855
     27 C22        -3.8960  -11.0647   -5.5198 C.3       1 <0>         0.0288
     28 O4         -3.7394  -12.4804   -5.6355 O.3       1 <0>        -0.2955
     29 C23        -4.7285  -13.1604   -6.2718 C.ar      1 <0>         0.1794
     30 C24        -5.8231  -12.4823   -6.7793 C.ar      1 <0>        -0.2457
     31 C25        -6.8318  -13.1752   -7.4282 C.ar      1 <0>        -0.0442
     32 C26        -6.7604  -14.5441   -7.5766 C.ar      1 <0>        -0.1714
     33 C27        -5.6688  -15.2459   -7.0734 C.ar      1 <0>         0.1819
     34 C28        -4.6428  -14.5466   -6.4219 C.ar      1 <0>        -0.1300
     35 C29        -3.6423  -15.5509   -6.0180 C.ar      1 <0>        -0.0922
     36 C30        -2.4259  -15.4751   -5.3432 C.ar      1 <0>        -0.0604
     37 C31        -1.6998  -16.6229   -5.1095 C.ar      1 <0>        -0.1467
     38 C32        -2.1753  -17.8507   -5.5437 C.ar      1 <0>        -0.0826
     39 C33        -3.3769  -17.9401   -6.2129 C.ar      1 <0>        -0.1382
     40 C34        -4.1250  -16.7925   -6.4576 C.ar      1 <0>         0.1336
     41 N3         -5.3451  -16.5909   -7.0787 N.pl3     1 <0>        -0.6122
     42 H1         -5.8892  -17.2907   -7.4725 H         1 <0>         0.4225
     43 O5         -2.6739  -10.9665   -3.4372 O.3       1 <0>        -0.5413
     44 H2          1.0053    1.8021    0.0021 H         1 <0>         0.0621
     45 H3         -0.5445    1.7859   -0.8732 H         1 <0>         0.0613
     46 H4         -0.5275    1.7763    0.9067 H         1 <0>         0.1099
     47 H5          1.1208    1.2476   -1.9821 H         1 <0>         0.1491
     48 H6          2.3512    1.3868   -4.1518 H         1 <0>         0.1436
     49 H7          3.4178    0.2593   -6.0239 H         1 <0>         0.1437
     50 H8          3.5049   -2.1916   -6.1530 H         1 <0>         0.1473
     51 H9          0.2120   -2.5870   -0.3212 H         1 <0>         0.1561
     52 H10         2.8745   -6.4475   -3.9590 H         1 <0>         0.1100
     53 H11         1.9988   -6.5513   -2.4129 H         1 <0>         0.1066
     54 H12         0.6679   -6.1729   -5.1328 H         1 <0>         0.0951
     55 H13        -0.4173   -6.7786   -2.3426 H         1 <0>         0.1016
     56 H14        -0.6280   -5.2591   -3.2468 H         1 <0>         0.1047
     57 H15        -2.6329   -6.7044   -3.4553 H         1 <0>         0.1321
     58 H16        -1.8344   -6.4873   -5.0306 H         1 <0>         0.1280
     59 H17        -0.3536   -9.7705   -5.1411 H         1 <0>         0.1354
     60 H18        -0.5511   -8.2136   -5.9797 H         1 <0>         0.1309
     61 H19         1.7070   -8.4001   -4.9739 H         1 <0>         0.1191
     62 H20         0.9727   -8.6484   -3.3707 H         1 <0>         0.0957
     63 H21        -3.6694   -8.6528   -4.1815 H         1 <0>         0.1395
     64 H22        -2.9020   -8.5841   -5.7861 H         1 <0>         0.1435
     65 H23        -1.7743  -10.7730   -5.2870 H         1 <0>         0.1340
     66 H24        -4.8074  -10.8442   -4.9641 H         1 <0>         0.0784
     67 H25        -3.9613  -10.6239   -6.5146 H         1 <0>         0.0821
     68 H26        -5.8911  -11.4101   -6.6689 H         1 <0>         0.1278
     69 H27        -7.6824  -12.6381   -7.8212 H         1 <0>         0.1350
     70 H28        -7.5535  -15.0730   -8.0842 H         1 <0>         0.1304
     71 H29        -2.0529  -14.5197   -5.0046 H         1 <0>         0.1253
     72 H30        -0.7566  -16.5657   -4.5865 H         1 <0>         0.1275
     73 H31        -1.5991  -18.7448   -5.3563 H         1 <0>         0.1319
     74 H32        -3.7383  -18.9013   -6.5473 H         1 <0>         0.1269
     75 H33        -3.4622  -10.7400   -2.9250 H         1 <0>         0.3903
     76 H34        -1.4489   -8.7833   -3.2454 H         1 <0>         0.4293
@<TRIPOS>BOND
     1    1    2 1
     2    1   44 1
     3    1   45 1
     4    1   46 1
     5    2    3 1
     6    3   12 ar
     7    3    4 ar
     8    4    5 ar
     9    4   47 1
    10    5   10 ar
    11    5    6 ar
    12    6    7 ar
    13    6   48 1
    14    7    8 ar
    15    7   49 1
    16    8    9 ar
    17    8   50 1
    18    9   16 1
    19    9   10 ar
    20   10   11 ar
    21   11   12 ar
    22   11   13 1
    23   12   51 1
    24   13   14 2
    25   13   15 am
    26   15   16 am
    27   15   18 1
    28   16   17 2
    29   18   19 1
    30   18   52 1
    31   18   53 1
    32   19   24 1
    33   19   20 1
    34   19   54 1
    35   20   21 1
    36   20   55 1
    37   20   56 1
    38   21   22 1
    39   21   57 1
    40   21   58 1
    41   22   23 1
    42   22   25 1
    43   22   76 1
    44   23   24 1
    45   23   59 1
    46   23   60 1
    47   24   61 1
    48   24   62 1
    49   25   26 1
    50   25   63 1
    51   25   64 1
    52   26   27 1
    53   26   43 1
    54   26   65 1
    55   27   28 1
    56   27   66 1
    57   27   67 1
    58   28   29 1
    59   29   34 ar
    60   29   30 ar
    61   30   31 ar
    62   30   68 1
    63   31   32 ar
    64   31   69 1
    65   32   33 ar
    66   32   70 1
    67   33   41 1
    68   33   34 ar
    69   34   35 1
    70   35   40 ar
    71   35   36 ar
    72   36   37 ar
    73   36   71 1
    74   37   38 ar
    75   37   72 1
    76   38   39 ar
    77   38   73 1
    78   39   40 ar
    79   39   74 1
    80   40   41 1
    81   41   42 1
    82   43   75 1
@<TRIPOS>MOLECULE
CHEMBL1084707__1
   76    82     0     0     0
SMALL
USER_CHARGES

@<TRIPOS>ATOM
      1 C1         -0.7662    1.6918   -0.2052 C.3       1 <0>         0.0216
      2 O1         -0.6230    0.2700   -0.1982 O.3       1 <0>        -0.3088
      3 C2         -0.0060   -0.2933   -1.2703 C.ar      1 <0>         0.1151
      4 C3          0.4490    0.5160   -2.2911 C.ar      1 <0>        -0.1515
      5 C4          1.0884   -0.0544   -3.4046 C.ar      1 <0>        -0.0362
      6 C5          1.5691    0.7274   -4.4702 C.ar      1 <0>        -0.0531
      7 C6          2.1836    0.1306   -5.5330 C.ar      1 <0>        -0.1286
      8 C7          2.3523   -1.2478   -5.5959 C.ar      1 <0>        -0.0090
      9 C8          1.8930   -2.0543   -4.5654 C.ar      1 <0>        -0.1607
     10 C9          1.2534   -1.4545   -3.4561 C.ar      1 <0>        -0.0201
     11 C10         0.7818   -2.2700   -2.4025 C.ar      1 <0>        -0.1346
     12 C11         0.1598   -1.6774   -1.3142 C.ar      1 <0>        -0.0212
     13 C12         0.9735   -3.7254   -2.4958 C.2       1 <0>         0.5757
     14 O2          0.5755   -4.4461   -1.6006 O.2       1 <0>        -0.4881
     15 N1          1.5864   -4.2645   -3.5664 N.am      1 <0>        -0.5612
     16 C13         2.0475   -3.5164   -4.5865 C.2       1 <0>         0.5729
     17 O3          2.5942   -4.0530   -5.5310 O.2       1 <0>        -0.4871
     18 C14         1.7588   -5.7183   -3.6232 C.3       1 <0>         0.0997
     19 C15         0.5455   -6.3494   -4.3090 C.3       1 <0>        -0.1150
     20 C16        -0.7010   -6.1320   -3.4462 C.3       1 <0>        -0.1400
     21 C17        -1.8945   -6.8335   -4.0981 C.3       1 <0>        -0.0112
     22 N2         -1.6201   -8.2710   -4.2106 N.4       1 <0>        -0.3774
     23 C18        -0.4692   -8.4907   -5.0948 C.3       1 <0>        -0.0037
     24 C19         0.7792   -7.8530   -4.4812 C.3       1 <0>        -0.1378
     25 C20        -2.7984   -8.9510   -4.7649 C.3       1 <0>        -0.0432
     26 C21        -3.9562   -8.8584   -3.7690 C.3       1 <0>         0.0856
     27 C22        -5.1850   -9.5618   -4.3488 C.3       1 <0>         0.0291
     28 O4         -6.2981   -9.3756   -3.4722 O.3       1 <0>        -0.2954
     29 C23        -7.4764   -9.9412   -3.8429 C.ar      1 <0>         0.1794
     30 C24        -7.5607  -10.6643   -5.0200 C.ar      1 <0>        -0.2457
     31 C25        -8.7617  -11.2412   -5.3984 C.ar      1 <0>        -0.0442
     32 C26        -9.8856  -11.1035   -4.6116 C.ar      1 <0>        -0.1715
     33 C27        -9.8234  -10.3802   -3.4240 C.ar      1 <0>         0.1819
     34 C28        -8.6073   -9.8006   -3.0349 C.ar      1 <0>        -0.1300
     35 C29        -8.8590   -9.1206   -1.7515 C.ar      1 <0>        -0.0922
     36 C30        -8.0587   -8.3765   -0.8875 C.ar      1 <0>        -0.0603
     37 C31        -8.5989   -7.8563    0.2688 C.ar      1 <0>        -0.1467
     38 C32        -9.9341   -8.0714    0.5743 C.ar      1 <0>        -0.0826
     39 C33       -10.7369   -8.8060   -0.2714 C.ar      1 <0>        -0.1383
     40 C34       -10.2102   -9.3387   -1.4440 C.ar      1 <0>         0.1336
     41 N3        -10.7739  -10.0867   -2.4627 N.pl3     1 <0>        -0.6122
     42 H1        -11.6997  -10.3747   -2.4922 H         1 <0>         0.4225
     43 O5         -3.5810   -9.4885   -2.5426 O.3       1 <0>        -0.5411
     44 H2          0.2189    2.1559   -0.2534 H         1 <0>         0.0620
     45 H3         -1.3529    1.9936   -1.0728 H         1 <0>         0.0613
     46 H4         -1.2738    2.0103    0.7053 H         1 <0>         0.1099
     47 H5          0.3135    1.5860   -2.2344 H         1 <0>         0.1491
     48 H6          1.4517    1.8008   -4.4479 H         1 <0>         0.1435
     49 H7          2.5470    0.7437   -6.3444 H         1 <0>         0.1436
     50 H8          2.8421   -1.6920   -6.4498 H         1 <0>         0.1470
     51 H9         -0.2007   -2.2894   -0.5006 H         1 <0>         0.1564
     52 H10         2.6600   -5.9554   -4.1887 H         1 <0>         0.1095
     53 H11         1.8504   -6.1131   -2.6113 H         1 <0>         0.1065
     54 H12         0.3987   -5.8890   -5.2861 H         1 <0>         0.0951
     55 H13        -0.5328   -6.5474   -2.4526 H         1 <0>         0.1022
     56 H14        -0.9059   -5.0645   -3.3652 H         1 <0>         0.1043
     57 H15        -2.7837   -6.6805   -3.4865 H         1 <0>         0.1332
     58 H16        -2.0619   -6.4171   -5.0915 H         1 <0>         0.1281
     59 H17        -0.3061   -9.5612   -5.2189 H         1 <0>         0.1341
     60 H18        -0.6670   -8.0390   -6.0669 H         1 <0>         0.1302
     61 H19         1.6322   -8.0156   -5.1400 H         1 <0>         0.1191
     62 H20         0.9780   -8.3041   -3.5091 H         1 <0>         0.0948
     63 H21        -3.0859   -8.4739   -5.7018 H         1 <0>         0.1438
     64 H22        -2.5602   -9.9986   -4.9489 H         1 <0>         0.1397
     65 H23        -4.1917   -7.8107   -3.5821 H         1 <0>         0.1337
     66 H24        -5.4178   -9.1396   -5.3264 H         1 <0>         0.0823
     67 H25        -4.9786  -10.6270   -4.4528 H         1 <0>         0.0784
     68 H26        -6.6876  -10.7788   -5.6454 H         1 <0>         0.1278
     69 H27        -8.8186  -11.8038   -6.3186 H         1 <0>         0.1351
     70 H28       -10.8164  -11.5578   -4.9176 H         1 <0>         0.1304
     71 H29        -7.0182   -8.2081   -1.1229 H         1 <0>         0.1253
     72 H30        -7.9797   -7.2792    0.9396 H         1 <0>         0.1276
     73 H31       -10.3484   -7.6601    1.4829 H         1 <0>         0.1319
     74 H32       -11.7757   -8.9681   -0.0240 H         1 <0>         0.1269
     75 H33        -3.3573  -10.4249   -2.6338 H         1 <0>         0.3896
     76 H34        -1.4169   -8.6462   -3.2963 H         1 <0>         0.4289
@<TRIPOS>BOND
     1    1    2 1
     2    1   44 1
     3    1   45 1
     4    1   46 1
     5    2    3 1
     6    3   12 ar
     7    3    4 ar
     8    4    5 ar
     9    4   47 1
    10    5   10 ar
    11    5    6 ar
    12    6    7 ar
    13    6   48 1
    14    7    8 ar
    15    7   49 1
    16    8    9 ar
    17    8   50 1
    18    9   16 1
    19    9   10 ar
    20   10   11 ar
    21   11   12 ar
    22   11   13 1
    23   12   51 1
    24   13   14 2
    25   13   15 am
    26   15   16 am
    27   15   18 1
    28   16   17 2
    29   18   19 1
    30   18   52 1
    31   18   53 1
    32   19   24 1
    33   19   20 1
    34   19   54 1
    35   20   21 1
    36   20   55 1
    37   20   56 1
    38   21   22 1
    39   21   57 1
    40   21   58 1
    41   22   23 1
    42   22   25 1
    43   22   76 1
    44   23   24 1
    45   23   59 1
    46   23   60 1
    47   24   61 1
    48   24   62 1
    49   25   26 1
    50   25   63 1
    51   25   64 1
    52   26   27 1
    53   26   43 1
    54   26   65 1
    55   27   28 1
    56   27   66 1
    57   27   67 1
    58   28   29 1
    59   29   34 ar
    60   29   30 ar
    61   30   31 ar
    62   30   68 1
    63   31   32 ar
    64   31   69 1
    65   32   33 ar
    66   32   70 1
    67   33   41 1
    68   33   34 ar
    69   34   35 1
    70   35   40 ar
    71   35   36 ar
    72   36   37 ar
    73   36   71 1
    74   37   38 ar
    75   37   72 1
    76   38   39 ar
    77   38   73 1
    78   39   40 ar
    79   39   74 1
    80   40   41 1
    81   41   42 1
    82   43   75 1
@<TRIPOS>MOLECULE
CHEMBL497280
   52    55     0     0     0
SMALL
USER_CHARGES

@<TRIPOS>ATOM
      1 C1          1.2037    0.5738    1.1713 C.ar      1 <0>        -0.0986
      2 C2          2.2804    1.4180    0.9721 C.ar      1 <0>        -0.0985
      3 C3          3.5408    0.8926    0.7580 C.ar      1 <0>        -0.1289
      4 C4          3.7254   -0.4773    0.7424 C.ar      1 <0>        -0.0992
      5 C5          2.6485   -1.3224    0.9416 C.ar      1 <0>        -0.0300
      6 C6          1.3870   -0.7958    1.1563 C.ar      1 <0>        -0.0927
      7 Cl1         2.8795   -3.0428    0.9216 Cl        1 <0>        -0.0481
      8 C7          4.7139    1.8133    0.5410 C.3       1 <0>         0.1376
      9 H1          4.5095    2.7779    1.0056 H         1 <0>         0.1349
     10 C8          4.9389    2.0076   -0.9599 C.3       1 <0>        -0.0483
     11 N1          6.0825    2.9052   -1.1714 N.4       1 <0>        -0.5018
     12 C9          6.2985    3.0917   -2.6124 C.3       1 <0>         0.0259
     13 H2          5.3789    3.4453   -3.0786 H         1 <0>         0.1454
     14 C10         7.4183    4.1144   -2.8385 C.3       1 <0>        -0.1386
     15 C11         7.4571    4.4657   -4.3242 C.3       1 <0>        -0.0746
     16 C12         7.5096    3.2153   -5.1630 C.ar      1 <0>        -0.0841
     17 C13         7.9263    3.3402   -6.4828 C.ar      1 <0>        -0.0961
     18 C14         7.9915    2.2367   -7.3059 C.ar      1 <0>        -0.1099
     19 C15         7.6370    0.9888   -6.8127 C.ar      1 <0>         0.0917
     20 C16         7.2242    0.8643   -5.4969 C.ar      1 <0>        -0.1087
     21 C17         7.1626    1.9773   -4.6696 C.ar      1 <0>        -0.0802
     22 C18         6.7195    1.7670   -3.2451 C.3       1 <0>        -0.0925
     23 O1          7.6943   -0.1050   -7.6169 O.3       1 <0>        -0.2127
     24 C19         8.9107   -0.6432   -7.8727 C.2       1 <0>        -0.0762
     25 C20         9.2154   -1.6786   -8.7269 C.2       1 <0>        -0.1878
     26 C21        10.5206   -2.0736   -8.8413 C.2       1 <0>        -0.1180
     27 C22        11.4381   -1.3734   -8.0637 C.2       1 <0>        -0.1732
     28 S1         10.3951   -0.1955   -7.2258 S.3       1 <0>         0.1486
     29 C23        12.8356   -1.5473   -7.9677 C.2       1 <0>         0.5477
     30 O2         13.3921   -2.4155   -8.6304 O.co2     1 <0>        -0.6649
     31 O3         13.4927   -0.8301   -7.2216 O.co2     1 <0>        -0.6827
     32 O4          5.8841    1.2404    1.1278 O.3       1 <0>        -0.5465
     33 H3          0.2198    0.9850    1.3430 H         1 <0>         0.1417
     34 H4          2.1366    2.4883    0.9835 H         1 <0>         0.1347
     35 H5          4.7102   -0.8877    0.5744 H         1 <0>         0.1344
     36 H6          0.5459   -1.4551    1.3119 H         1 <0>         0.1422
     37 H7          5.1433    1.0430   -1.4245 H         1 <0>         0.1389
     38 H8          4.0463    2.4447   -1.4075 H         1 <0>         0.1463
     39 H9          5.8932    3.7981   -0.7413 H         1 <0>         0.4298
     40 H10         7.2187    5.0125   -2.2540 H         1 <0>         0.0941
     41 H11         8.3739    3.6849   -2.5377 H         1 <0>         0.0968
     42 H12         6.5639    5.0346   -4.5826 H         1 <0>         0.0893
     43 H13         8.3399    5.0720   -4.5273 H         1 <0>         0.1005
     44 H14         8.2012    4.3113   -6.8673 H         1 <0>         0.1369
     45 H15         8.3166    2.3426   -8.3304 H         1 <0>         0.1400
     46 H16         6.9477   -0.1059   -5.1115 H         1 <0>         0.1350
     47 H17         7.5429    1.3407   -2.6720 H         1 <0>         0.1006
     48 H18         5.8760    1.0768   -3.2288 H         1 <0>         0.0977
     49 H19         8.4396   -2.1698   -9.2954 H         1 <0>         0.1304
     50 H20        10.8202   -2.8796   -9.4947 H         1 <0>         0.1497
     51 H21         6.1261    0.3787    0.7617 H         1 <0>         0.3904
     52 H22         6.9087    2.5006   -0.7570 H         1 <0>         0.4316
@<TRIPOS>BOND
     1    1    6 ar
     2    1    2 ar
     3    1   33 1
     4    2    3 ar
     5    2   34 1
     6    3    4 ar
     7    3    8 1
     8    4    5 ar
     9    4   35 1
    10    5    6 ar
    11    5    7 1
    12    6   36 1
    13    8    9 1
    14    8   10 1
    15    8   32 1
    16   10   11 1
    17   10   37 1
    18   10   38 1
    19   11   12 1
    20   11   39 1
    21   11   52 1
    22   12   13 1
    23   12   22 1
    24   12   14 1
    25   14   15 1
    26   14   40 1
    27   14   41 1
    28   15   16 1
    29   15   42 1
    30   15   43 1
    31   16   21 ar
    32   16   17 ar
    33   17   18 ar
    34   17   44 1
    35   18   19 ar
    36   18   45 1
    37   19   20 ar
    38   19   23 1
    39   20   21 ar
    40   20   46 1
    41   21   22 1
    42   22   47 1
    43   22   48 1
    44   23   24 1
    45   24   28 1
    46   24   25 2
    47   25   26 1
    48   25   49 1
    49   26   27 2
    50   26   50 1
    51   27   28 1
    52   27   29 1
    53   29   30 2
    54   29   31 1
    55   32   51 1
@<TRIPOS>MOLECULE
CHEMBL1203992
   57    59     0     0     0
SMALL
USER_CHARGES

@<TRIPOS>ATOM
      1 C1          0.2824    1.4964    0.4783 C.ar      1 <0>        -0.1475
      2 C2          1.4805    2.1851    0.4336 C.ar      1 <0>        -0.0765
      3 C3          2.6741    1.4932    0.3626 C.ar      1 <0>        -0.1446
      4 C4          2.6699    0.1061    0.3366 C.ar      1 <0>         0.1165
      5 C5          1.4665   -0.5826    0.3820 C.ar      1 <0>        -0.2095
      6 C6          0.2756    0.1140    0.4525 C.ar      1 <0>        -0.0800
      7 O1          3.8428   -0.5768    0.2663 O.3       1 <0>        -0.3028
      8 C7          3.7624   -2.0034    0.2433 C.3       1 <0>         0.0296
      9 C8          5.1722   -2.5924    0.1632 C.3       1 <0>         0.0858
     10 H1          5.6931   -2.1725   -0.6973 H         1 <0>         0.1359
     11 C9          5.0821   -4.1123    0.0130 C.3       1 <0>        -0.0417
     12 N1          6.4358   -4.6778   -0.0639 N.4       1 <0>        -0.5036
     13 C10         6.3493   -6.1372   -0.2082 C.3       1 <0>        -0.0079
     14 C11         7.7591   -6.7262   -0.2883 C.3       1 <0>        -0.0972
     15 C12         7.6704   -8.2233   -0.4362 C.ar      1 <0>        -0.1286
     16 C13         7.6421   -9.0272    0.6885 C.ar      1 <0>        -0.0823
     17 C14         7.5608  -10.3996    0.5562 C.ar      1 <0>        -0.1269
     18 C15         7.5071  -10.9719   -0.7079 C.ar      1 <0>         0.1824
     19 C16         7.5352  -10.1617   -1.8354 C.ar      1 <0>        -0.1421
     20 C17         7.6117   -8.7897   -1.6963 C.ar      1 <0>        -0.0823
     21 N2          7.4251  -12.3622   -0.8453 N.am      1 <0>        -0.6479
     22 C18         6.8814  -13.1057    0.1386 C.2       1 <0>         0.6491
     23 O2          6.3633  -12.5632    1.0946 O.2       1 <0>        -0.5323
     24 O3          6.9122  -14.4500    0.0622 O.3       1 <0>        -0.2962
     25 C19         6.2606  -15.1589    1.0217 C.ar      1 <0>         0.0931
     26 C20         6.9764  -15.9545    1.9044 C.ar      1 <0>        -0.1121
     27 C21         6.3118  -16.6739    2.8786 C.ar      1 <0>        -0.1026
     28 C22         4.9344  -16.6015    2.9744 C.ar      1 <0>        -0.1101
     29 C23         4.2187  -15.8096    2.0956 C.ar      1 <0>        -0.1031
     30 C24         4.8791  -15.0834    1.1235 C.ar      1 <0>        -0.1196
     31 O4          5.8902   -2.2734    1.3568 O.3       1 <0>        -0.5436
     32 H2         -0.6494    2.0391    0.5380 H         1 <0>         0.1297
     33 H3          1.4832    3.2649    0.4539 H         1 <0>         0.1353
     34 H4          3.6096    2.0316    0.3270 H         1 <0>         0.1332
     35 H5          1.4606   -1.6624    0.3615 H         1 <0>         0.1234
     36 H6         -0.6615   -0.4217    0.4878 H         1 <0>         0.1285
     37 H7          3.2730   -2.3544    1.1518 H         1 <0>         0.0764
     38 H8          3.1861   -2.3208   -0.6257 H         1 <0>         0.0813
     39 H9          4.5613   -4.5322    0.8735 H         1 <0>         0.1398
     40 H10         4.5345   -4.3556   -0.8975 H         1 <0>         0.1470
     41 H11         6.9179   -4.2891   -0.8605 H         1 <0>         0.4309
     42 H12         5.8284   -6.5571    0.6523 H         1 <0>         0.1341
     43 H13         5.8016   -6.3805   -1.1186 H         1 <0>         0.1346
     44 H14         8.2799   -6.3062   -1.1488 H         1 <0>         0.0970
     45 H15         8.3068   -6.4829    0.6222 H         1 <0>         0.0969
     46 H16         7.6839   -8.5815    1.6713 H         1 <0>         0.1299
     47 H17         7.5395  -11.0270    1.4350 H         1 <0>         0.1507
     48 H18         7.4939  -10.6038   -2.8199 H         1 <0>         0.1362
     49 H19         7.6299   -8.1589   -2.5727 H         1 <0>         0.1318
     50 H20         7.7597  -12.7907   -1.6486 H         1 <0>         0.4245
     51 H21         8.0523  -16.0117    1.8297 H         1 <0>         0.1342
     52 H22         6.8686  -17.2938    3.5658 H         1 <0>         0.1369
     53 H23         4.4167  -17.1647    3.7367 H         1 <0>         0.1331
     54 H24         3.1427  -15.7552    2.1720 H         1 <0>         0.1333
     55 H25         4.3200  -14.4613    0.4403 H         1 <0>         0.1262
     56 H26         5.4832   -2.6163    2.1642 H         1 <0>         0.3903
     57 H27         6.9427   -4.4526    0.7789 H         1 <0>         0.4336
@<TRIPOS>BOND
     1    1    6 ar
     2    1    2 ar
     3    1   32 1
     4    2    3 ar
     5    2   33 1
     6    3    4 ar
     7    3   34 1
     8    4    5 ar
     9    4    7 1
    10    5    6 ar
    11    5   35 1
    12    6   36 1
    13    7    8 1
    14    8    9 1
    15    8   37 1
    16    8   38 1
    17    9   10 1
    18    9   11 1
    19    9   31 1
    20   11   12 1
    21   11   39 1
    22   11   40 1
    23   12   13 1
    24   12   41 1
    25   12   57 1
    26   13   14 1
    27   13   42 1
    28   13   43 1
    29   14   15 1
    30   14   44 1
    31   14   45 1
    32   15   20 ar
    33   15   16 ar
    34   16   17 ar
    35   16   46 1
    36   17   18 ar
    37   17   47 1
    38   18   19 ar
    39   18   21 1
    40   19   20 ar
    41   19   48 1
    42   20   49 1
    43   21   22 am
    44   21   50 1
    45   22   23 2
    46   22   24 1
    47   24   25 1
    48   25   30 ar
    49   25   26 ar
    50   26   27 ar
    51   26   51 1
    52   27   28 ar
    53   27   52 1
    54   28   29 ar
    55   28   53 1
    56   29   30 ar
    57   29   54 1
    58   30   55 1
    59   31   56 1
@<TRIPOS>MOLECULE
CHEMBL479342
   74    77     0     0     0
SMALL
USER_CHARGES

@<TRIPOS>ATOM
      1 C1          0.4825    1.7036    0.2845 C.3       1 <0>        -0.6501
      2 S1          0.2764   -0.0916    0.1245 S.o2      1 <0>         2.5749
      3 O1          1.1407   -0.7659    1.0287 O.2       1 <0>        -0.9994
      4 O2         -1.1042   -0.4219    0.0594 O.2       1 <0>        -0.9993
      5 N1          0.8694   -0.4558   -1.3781 N.2       1 <0>        -1.0471
      6 C2          0.8626   -1.6877   -1.7997 C.2       1 <0>         0.5153
      7 O3          0.3711   -2.6701   -1.0101 O.3       1 <0>        -0.6969
      8 C3          1.3910   -2.0123   -3.1387 C.ar      1 <0>        -0.0333
      9 C4          1.3792   -3.3326   -3.5949 C.ar      1 <0>        -0.0535
     10 C5          1.8714   -3.6349   -4.8433 C.ar      1 <0>        -0.1306
     11 C6          2.3848   -2.6249   -5.6602 C.ar      1 <0>        -0.0519
     12 C7          2.4015   -1.3069   -5.2150 C.ar      1 <0>        -0.1359
     13 C8          1.9015   -0.9941   -3.9594 C.ar      1 <0>        -0.0531
     14 S2          1.9136    0.6746   -3.3937 S.3       1 <0>         0.0691
     15 C9          2.8197    1.5694   -4.6856 C.3       1 <0>        -0.1668
     16 C10         4.2969    1.1738   -4.6396 C.3       1 <0>        -0.1110
     17 C11         5.0611    1.9285   -5.7293 C.3       1 <0>        -0.1143
     18 C12         4.9290    3.4346   -5.4948 C.3       1 <0>        -0.1196
     19 C13         3.4517    3.8303   -5.5408 C.3       1 <0>        -0.1132
     20 C14         2.6875    3.0755   -4.4511 C.3       1 <0>        -0.0925
     21 C15         2.9138   -2.9583   -7.0051 C.ar      1 <0>        -0.0003
     22 C16         3.4323   -1.9546   -7.8214 C.ar      1 <0>        -0.1125
     23 C17         3.9231   -2.2706   -9.0719 C.ar      1 <0>        -0.1028
     24 C18         3.9008   -3.5806   -9.5158 C.ar      1 <0>        -0.1251
     25 C19         3.3874   -4.5808   -8.7099 C.ar      1 <0>        -0.1031
     26 C20         2.8995   -4.2774   -7.4551 C.ar      1 <0>        -0.1117
     27 C21         4.4373   -3.9192  -10.8827 C.3       1 <0>        -0.0952
     28 C22         5.9279   -4.2482  -10.7784 C.3       1 <0>        -0.0080
     29 N2          6.4509   -4.5783  -12.1109 N.4       1 <0>        -0.5056
     30 C23         7.8820   -4.8942  -12.0107 C.3       1 <0>        -0.0420
     31 C24         8.4268   -5.2380  -13.3985 C.3       1 <0>         0.1353
     32 H1          8.2885   -4.3861  -14.0644 H         1 <0>         0.1311
     33 C25         9.8949   -5.5621  -13.2957 C.ar      1 <0>        -0.1429
     34 C26        10.2988   -6.8437  -12.9712 C.ar      1 <0>        -0.1065
     35 C27        11.6455   -7.1409  -12.8770 C.ar      1 <0>        -0.1117
     36 C28        12.5884   -6.1567  -13.1077 C.ar      1 <0>        -0.0997
     37 C29        12.1845   -4.8754  -13.4331 C.ar      1 <0>        -0.1127
     38 C30        10.8379   -4.5791  -13.5315 C.ar      1 <0>        -0.1020
     39 O4          7.7247   -6.3685  -13.9192 O.3       1 <0>        -0.5488
     40 H2          1.5387    1.9574    0.1955 H         1 <0>         0.1190
     41 H3         -0.0794    2.2054   -0.5033 H         1 <0>         0.1188
     42 H4          0.1119    2.0266    1.2573 H         1 <0>         0.1077
     43 H5          0.9835   -4.1169   -2.9666 H         1 <0>         0.1418
     44 H6          1.8612   -4.6567   -5.1929 H         1 <0>         0.1235
     45 H7          2.7996   -0.5275   -5.8479 H         1 <0>         0.1272
     46 H8          2.4058    1.3159   -5.6616 H         1 <0>         0.0747
     47 H9          4.7108    1.4273   -3.6636 H         1 <0>         0.0731
     48 H10         4.3911    0.1008   -4.8067 H         1 <0>         0.0619
     49 H11         6.1135    1.6467   -5.6966 H         1 <0>         0.0572
     50 H12         4.6473    1.6750   -6.7053 H         1 <0>         0.0537
     51 H13         5.3428    3.6881   -4.5188 H         1 <0>         0.0633
     52 H14         5.4734    3.9723   -6.2711 H         1 <0>         0.0564
     53 H15         3.3576    4.9033   -5.3737 H         1 <0>         0.0627
     54 H16         3.0379    3.5768   -6.5167 H         1 <0>         0.0582
     55 H17         1.6351    3.3574   -4.4838 H         1 <0>         0.0691
     56 H18         3.1014    3.3290   -3.4751 H         1 <0>         0.0698
     57 H19         3.4496   -0.9314   -7.4761 H         1 <0>         0.1295
     58 H20         4.3251   -1.4937   -9.7053 H         1 <0>         0.1221
     59 H21         3.3724   -5.6019   -9.0616 H         1 <0>         0.1229
     60 H22         2.5033   -5.0598   -6.8249 H         1 <0>         0.1339
     61 H23         3.9018   -4.7815  -11.2799 H         1 <0>         0.0937
     62 H24         4.2990   -3.0674  -11.5486 H         1 <0>         0.0934
     63 H25         6.4634   -3.3859  -10.3812 H         1 <0>         0.1337
     64 H26         6.0662   -5.1000  -10.1125 H         1 <0>         0.1333
     65 H27         5.9552   -5.3765  -12.4785 H         1 <0>         0.4310
     66 H28         8.4176   -4.0319  -11.6135 H         1 <0>         0.1443
     67 H29         8.0204   -5.7460  -11.3448 H         1 <0>         0.1365
     68 H30         9.5621   -7.6126  -12.7910 H         1 <0>         0.1226
     69 H31        11.9610   -8.1421  -12.6227 H         1 <0>         0.1313
     70 H32        13.6405   -6.3888  -13.0333 H         1 <0>         0.1313
     71 H33        12.9212   -4.1064  -13.6130 H         1 <0>         0.1317
     72 H34        10.5224   -3.5789  -13.7894 H         1 <0>         0.1275
     73 H35         7.8038   -7.1648  -13.3763 H         1 <0>         0.3882
     74 H36         6.3229   -3.7898  -12.7272 H         1 <0>         0.4284
@<TRIPOS>BOND
     1    1    2 1
     2    1   40 1
     3    1   41 1
     4    1   42 1
     5    2    3 2
     6    2    4 2
     7    2    5 1
     8    5    6 2
     9    6    7 1
    10    6    8 1
    11    8   13 ar
    12    8    9 ar
    13    9   10 ar
    14    9   43 1
    15   10   11 ar
    16   10   44 1
    17   11   12 ar
    18   11   21 1
    19   12   13 ar
    20   12   45 1
    21   13   14 1
    22   14   15 1
    23   15   20 1
    24   15   16 1
    25   15   46 1
    26   16   17 1
    27   16   47 1
    28   16   48 1
    29   17   18 1
    30   17   49 1
    31   17   50 1
    32   18   19 1
    33   18   51 1
    34   18   52 1
    35   19   20 1
    36   19   53 1
    37   19   54 1
    38   20   55 1
    39   20   56 1
    40   21   26 ar
    41   21   22 ar
    42   22   23 ar
    43   22   57 1
    44   23   24 ar
    45   23   58 1
    46   24   25 ar
    47   24   27 1
    48   25   26 ar
    49   25   59 1
    50   26   60 1
    51   27   28 1
    52   27   61 1
    53   27   62 1
    54   28   29 1
    55   28   63 1
    56   28   64 1
    57   29   30 1
    58   29   65 1
    59   29   74 1
    60   30   31 1
    61   30   66 1
    62   30   67 1
    63   31   32 1
    64   31   33 1
    65   31   39 1
    66   33   38 ar
    67   33   34 ar
    68   34   35 ar
    69   34   68 1
    70   35   36 ar
    71   35   69 1
    72   36   37 ar
    73   36   70 1
    74   37   38 ar
    75   37   71 1
    76   38   72 1
    77   39   73 1
@<TRIPOS>MOLECULE
CHEMBL479341
   77    80     0     0     0
SMALL
USER_CHARGES

@<TRIPOS>ATOM
      1 C1         -0.4974    1.8227   -0.3113 C.3       1 <0>        -0.6478
      2 S1         -0.5641    0.0113   -0.3833 S.o2      1 <0>         2.5648
      3 O1          0.0573   -0.5475    0.7659 O.2       1 <0>        -1.0063
      4 O2         -1.8583   -0.4151   -0.7866 O.2       1 <0>        -1.0060
      5 N1          0.4284   -0.4013   -1.6431 N.2       1 <0>        -1.0347
      6 C2          0.5959   -1.6533   -1.9564 C.2       1 <0>         0.5172
      7 O3         -0.0408   -2.6176   -1.2532 O.3       1 <0>        -0.7118
      8 C3          1.4810   -2.0213   -3.0798 C.ar      1 <0>        -0.0712
      9 C4          1.6571   -3.3644   -3.4209 C.ar      1 <0>        -0.0386
     10 C5          2.4814   -3.7069   -4.4679 C.ar      1 <0>        -0.1567
     11 C6          3.1445   -2.7145   -5.1921 C.ar      1 <0>        -0.0353
     12 C7          2.9737   -1.3736   -4.8578 C.ar      1 <0>        -0.2161
     13 C8          2.1411   -1.0234   -3.8092 C.ar      1 <0>         0.1800
     14 O4          1.9684    0.2832   -3.4847 O.3       1 <0>        -0.2424
     15 C9          2.5769    1.2506   -4.3427 C.3       1 <0>         0.0835
     16 C10         4.0553    1.4187   -3.9366 C.3       1 <0>        -0.1446
     17 C11         4.8063    2.0080   -5.0997 C.3       1 <0>        -0.1140
     18 C12         4.9071    3.5433   -5.0192 C.3       1 <0>        -0.1157
     19 C13         3.5934    4.2050   -4.5607 C.3       1 <0>        -0.1241
     20 C14         2.3815    3.5822   -5.1990 C.3       1 <0>        -0.1080
     21 C15         1.8311    2.4970   -4.2510 C.3       1 <0>        -0.1250
     22 C16         4.0327   -3.0891   -6.3191 C.ar      1 <0>        -0.0010
     23 C17         4.7010   -2.1017   -7.0411 C.ar      1 <0>        -0.1119
     24 C18         5.5262   -2.4562   -8.0890 C.ar      1 <0>        -0.1038
     25 C19         5.6904   -3.7883   -8.4235 C.ar      1 <0>        -0.1250
     26 C20         5.0296   -4.7725   -7.7105 C.ar      1 <0>        -0.1035
     27 C21         4.2068   -4.4302   -6.6568 C.ar      1 <0>        -0.1107
     28 C22         6.5921   -4.1689   -9.5694 C.3       1 <0>        -0.0952
     29 C23         8.0139   -4.3883   -9.0484 C.3       1 <0>        -0.0080
     30 N2          8.8929   -4.7593  -10.1655 N.4       1 <0>        -0.5056
     31 C24        10.2579   -4.9699   -9.6653 C.3       1 <0>        -0.0420
     32 C25        11.1734   -5.3563  -10.8287 C.3       1 <0>         0.1353
     33 H1         11.1772   -4.5565  -11.5692 H         1 <0>         0.1310
     34 C26        12.5738   -5.5724  -10.3156 C.ar      1 <0>        -0.1429
     35 C27        12.9391   -6.8020   -9.8004 C.ar      1 <0>        -0.1065
     36 C28        14.2236   -7.0003   -9.3297 C.ar      1 <0>        -0.1117
     37 C29        15.1430   -5.9690   -9.3746 C.ar      1 <0>        -0.0997
     38 C30        14.7780   -4.7396   -9.8906 C.ar      1 <0>        -0.1127
     39 C31        13.4947   -4.5426  -10.3653 C.ar      1 <0>        -0.1021
     40 O5         10.6956   -6.5608  -11.4310 O.3       1 <0>        -0.5488
     41 H2          0.5300    2.1417   -0.1363 H         1 <0>         0.1156
     42 H3         -0.8508    2.2371   -1.2554 H         1 <0>         0.1159
     43 H4         -1.1315    2.1775    0.5012 H         1 <0>         0.1045
     44 H5          1.1461   -4.1345   -2.8621 H         1 <0>         0.1437
     45 H6          2.6162   -4.7459   -4.7298 H         1 <0>         0.1230
     46 H7          3.4877   -0.6071   -5.4188 H         1 <0>         0.1301
     47 H8          2.5334    0.8879   -5.3696 H         1 <0>         0.0595
     48 H9          4.1256    2.0874   -3.0786 H         1 <0>         0.0783
     49 H10         4.4780    0.4467   -3.6824 H         1 <0>         0.0712
     50 H11         5.8124    1.5891   -5.1186 H         1 <0>         0.0581
     51 H12         4.2957    1.7361   -6.0235 H         1 <0>         0.0574
     52 H13         5.6976    3.8074   -4.3168 H         1 <0>         0.0586
     53 H14         5.1707    3.9303   -6.0035 H         1 <0>         0.0561
     54 H15         3.5099    4.1099   -3.4780 H         1 <0>         0.0658
     55 H16         3.6231    5.2636   -4.8185 H         1 <0>         0.0586
     56 H17         1.6208    4.3456   -5.3625 H         1 <0>         0.0692
     57 H18         2.6606    3.1298   -6.1506 H         1 <0>         0.0633
     58 H19         0.7884    2.3039   -4.5031 H         1 <0>         0.0745
     59 H20         1.8824    2.8646   -3.2262 H         1 <0>         0.0781
     60 H21         4.5730   -1.0613   -6.7813 H         1 <0>         0.1297
     61 H22         6.0446   -1.6920   -8.6491 H         1 <0>         0.1220
     62 H23         5.1612   -5.8110   -7.9762 H         1 <0>         0.1229
     63 H24         3.6949   -5.1996   -6.0979 H         1 <0>         0.1344
     64 H25         6.2277   -5.0877  -10.0288 H         1 <0>         0.0937
     65 H26         6.5959   -3.3691  -10.3099 H         1 <0>         0.0933
     66 H27         8.3783   -3.4695   -8.5890 H         1 <0>         0.1337
     67 H28         8.0101   -5.1881   -8.3079 H         1 <0>         0.1333
     68 H29         8.5555   -5.6098  -10.5908 H         1 <0>         0.4311
     69 H30        10.6223   -4.0511   -9.2058 H         1 <0>         0.1443
     70 H31        10.2542   -5.7697   -8.9248 H         1 <0>         0.1365
     71 H32        12.2208   -7.6078   -9.7653 H         1 <0>         0.1226
     72 H33        14.5088   -7.9608   -8.9266 H         1 <0>         0.1313
     73 H34        16.1464   -6.1236   -9.0063 H         1 <0>         0.1313
     74 H35        15.4962   -3.9337   -9.9254 H         1 <0>         0.1317
     75 H36        13.2106   -3.5833  -10.7718 H         1 <0>         0.1275
     76 H37        10.6653   -7.3167  -10.8286 H         1 <0>         0.3883
     77 H38         8.8963   -4.0189  -10.8509 H         1 <0>         0.4283
@<TRIPOS>BOND
     1    1    2 1
     2    1   41 1
     3    1   42 1
     4    1   43 1
     5    2    3 2
     6    2    4 2
     7    2    5 1
     8    5    6 2
     9    6    7 1
    10    6    8 1
    11    8   13 ar
    12    8    9 ar
    13    9   10 ar
    14    9   44 1
    15   10   11 ar
    16   10   45 1
    17   11   12 ar
    18   11   22 1
    19   12   13 ar
    20   12   46 1
    21   13   14 1
    22   14   15 1
    23   15   21 1
    24   15   16 1
    25   15   47 1
    26   16   17 1
    27   16   48 1
    28   16   49 1
    29   17   18 1
    30   17   50 1
    31   17   51 1
    32   18   19 1
    33   18   52 1
    34   18   53 1
    35   19   20 1
    36   19   54 1
    37   19   55 1
    38   20   21 1
    39   20   56 1
    40   20   57 1
    41   21   58 1
    42   21   59 1
    43   22   27 ar
    44   22   23 ar
    45   23   24 ar
    46   23   60 1
    47   24   25 ar
    48   24   61 1
    49   25   26 ar
    50   25   28 1
    51   26   27 ar
    52   26   62 1
    53   27   63 1
    54   28   29 1
    55   28   64 1
    56   28   65 1
    57   29   30 1
    58   29   66 1
    59   29   67 1
    60   30   31 1
    61   30   68 1
    62   30   77 1
    63   31   32 1
    64   31   69 1
    65   31   70 1
    66   32   33 1
    67   32   34 1
    68   32   40 1
    69   34   39 ar
    70   34   35 ar
    71   35   36 ar
    72   35   71 1
    73   36   37 ar
    74   36   72 1
    75   37   38 ar
    76   37   73 1
    77   38   39 ar
    78   38   74 1
    79   39   75 1
    80   40   76 1
@<TRIPOS>MOLECULE
CHEMBL51667
   53    54     0     0     0
SMALL
USER_CHARGES

@<TRIPOS>ATOM
      1 C1         -0.0187    1.5258    0.0104 C.3       1 <0>        -0.1543
      2 C2          0.0021   -0.0041    0.0020 C.3       1 <0>         0.0601
      3 O1          0.6709   -0.4649   -1.1737 O.3       1 <0>        -0.3386
      4 C3          0.7760   -1.7999   -1.3349 C.2       1 <0>         0.5499
      5 O2          0.3119   -2.5517   -0.4993 O.2       1 <0>        -0.4770
      6 C4          1.4498   -2.3449   -2.5179 C.2       1 <0>        -0.0321
      7 C5          1.6111   -3.6662   -2.7901 C.2       1 <0>        -0.0419
      8 C6          2.3085   -3.7511   -4.0206 C.ar      1 <0>        -0.1668
      9 C7          2.5382   -2.4275   -4.4387 C.ar      1 <0>         0.1185
     10 O3          2.0016   -1.6106   -3.5094 O.3       1 <0>        -0.1572
     11 C8          3.2121   -2.1950   -5.6308 C.ar      1 <0>        -0.1409
     12 C9          3.6507   -3.2552   -6.3961 C.ar      1 <0>        -0.0350
     13 C10         3.4278   -4.5621   -5.9910 C.ar      1 <0>        -0.2356
     14 C11         2.7601   -4.8211   -4.8086 C.ar      1 <0>         0.1887
     15 O4          2.5432   -6.1012   -4.4123 O.3       1 <0>        -0.2909
     16 C12         3.0324   -7.1366   -5.2670 C.3       1 <0>         0.0262
     17 C13         2.6967   -8.5003   -4.6598 C.3       1 <0>         0.0872
     18 C14         3.3274   -9.6058   -5.5088 C.3       1 <0>        -0.0515
     19 N1          3.0051  -10.9151   -4.9258 N.4       1 <0>        -0.4978
     20 C15         3.6107  -11.9766   -5.7409 C.3       1 <0>         0.0549
     21 C16         5.1292  -11.7921   -5.7721 C.3       1 <0>        -0.1797
     22 C17         3.2750  -13.3402   -5.1337 C.3       1 <0>        -0.1779
     23 C18         3.0587  -11.9030   -7.1660 C.3       1 <0>        -0.1792
     24 O5          1.2784   -8.6726   -4.6307 O.3       1 <0>        -0.5420
     25 C19         1.1392   -4.8208   -1.9444 C.3       1 <0>        -0.0964
     26 H1          1.0039    1.9031    0.0027 H         1 <0>         0.0690
     27 H2         -0.5459    1.8868   -0.8726 H         1 <0>         0.0690
     28 H3         -0.5289    1.8773    0.9072 H         1 <0>         0.0852
     29 H4          0.5293   -0.3651    0.8851 H         1 <0>         0.0735
     30 H5         -1.0205   -0.3814    0.0098 H         1 <0>         0.0736
     31 H6          3.3926   -1.1821   -5.9592 H         1 <0>         0.1450
     32 H7          4.1736   -3.0652   -7.3218 H         1 <0>         0.1467
     33 H8          3.7773   -5.3814   -6.6017 H         1 <0>         0.1355
     34 H9          2.5639   -7.0502   -6.2474 H         1 <0>         0.0809
     35 H10         4.1132   -7.0415   -5.3712 H         1 <0>         0.0857
     36 H11         3.0900   -8.5527   -3.6446 H         1 <0>         0.1360
     37 H12         2.9342   -9.5534   -6.5240 H         1 <0>         0.1419
     38 H13         4.4093   -9.4744   -5.5310 H         1 <0>         0.1486
     39 H14         3.3692  -10.9636   -3.9860 H         1 <0>         0.4292
     40 H15         5.5225  -11.8445   -4.7569 H         1 <0>         0.0839
     41 H16         5.5786  -12.5797   -6.3769 H         1 <0>         0.1075
     42 H17         5.3684  -10.8206   -6.2047 H         1 <0>         0.0812
     43 H18         2.1932  -13.4717   -5.1115 H         1 <0>         0.0835
     44 H19         3.7244  -14.1278   -5.7386 H         1 <0>         0.1079
     45 H20         3.6683  -13.3926   -4.1185 H         1 <0>         0.0835
     46 H21         3.2978  -10.9315   -7.5986 H         1 <0>         0.0806
     47 H22         3.5080  -12.6906   -7.7708 H         1 <0>         0.1075
     48 H23         1.9769  -12.0344   -7.1438 H         1 <0>         0.0836
     49 H24         0.8600   -8.6373   -5.5018 H         1 <0>         0.3899
     50 H25         0.1311   -5.1044   -2.2468 H         1 <0>         0.0821
     51 H26         1.8111   -5.6685   -2.0794 H         1 <0>         0.0758
     52 H27         1.1342   -4.5247   -0.8955 H         1 <0>         0.0907
     53 H28         2.0037  -11.0368   -4.9053 H         1 <0>         0.4319
@<TRIPOS>BOND
     1    1    2 1
     2    1   26 1
     3    1   27 1
     4    1   28 1
     5    2    3 1
     6    2   29 1
     7    2   30 1
     8    3    4 1
     9    4    5 2
    10    4    6 1
    11    6   10 1
    12    6    7 2
    13    7    8 1
    14    7   25 1
    15    8   14 ar
    16    8    9 ar
    17    9   10 1
    18    9   11 ar
    19   11   12 ar
    20   11   31 1
    21   12   13 ar
    22   12   32 1
    23   13   14 ar
    24   13   33 1
    25   14   15 1
    26   15   16 1
    27   16   17 1
    28   16   34 1
    29   16   35 1
    30   17   18 1
    31   17   24 1
    32   17   36 1
    33   18   19 1
    34   18   37 1
    35   18   38 1
    36   19   20 1
    37   19   39 1
    38   19   53 1
    39   20   21 1
    40   20   22 1
    41   20   23 1
    42   21   40 1
    43   21   41 1
    44   21   42 1
    45   22   43 1
    46   22   44 1
    47   22   45 1
    48   23   46 1
    49   23   47 1
    50   23   48 1
    51   24   49 1
    52   25   50 1
    53   25   51 1
    54   25   52 1
@<TRIPOS>MOLECULE
CHEMBL51667__1
   53    54     0     0     0
SMALL
USER_CHARGES

@<TRIPOS>ATOM
      1 C1         -0.0187    1.5258    0.0104 C.3       1 <0>        -0.1543
      2 C2          0.0021   -0.0041    0.0020 C.3       1 <0>         0.0601
      3 O1          0.6709   -0.4649   -1.1737 O.3       1 <0>        -0.3386
      4 C3          0.7760   -1.7999   -1.3349 C.2       1 <0>         0.5499
      5 O2          0.3119   -2.5517   -0.4993 O.2       1 <0>        -0.4770
      6 C4          1.4498   -2.3449   -2.5179 C.2       1 <0>        -0.0321
      7 C5          1.6111   -3.6662   -2.7901 C.2       1 <0>        -0.0418
      8 C6          2.3085   -3.7511   -4.0206 C.ar      1 <0>        -0.1667
      9 C7          2.5382   -2.4275   -4.4387 C.ar      1 <0>         0.1185
     10 O3          2.0016   -1.6106   -3.5094 O.3       1 <0>        -0.1573
     11 C8          3.2121   -2.1950   -5.6308 C.ar      1 <0>        -0.1408
     12 C9          3.6507   -3.2552   -6.3961 C.ar      1 <0>        -0.0350
     13 C10         3.4278   -4.5621   -5.9910 C.ar      1 <0>        -0.2356
     14 C11         2.7601   -4.8211   -4.8086 C.ar      1 <0>         0.1886
     15 O4          2.5432   -6.1012   -4.4123 O.3       1 <0>        -0.2909
     16 C12         3.0324   -7.1366   -5.2670 C.3       1 <0>         0.0262
     17 C13         2.6967   -8.5003   -4.6598 C.3       1 <0>         0.0874
     18 C14         3.1086   -9.6071   -5.6326 C.3       1 <0>        -0.0512
     19 N1          2.6787  -10.9085   -5.1040 N.4       1 <0>        -0.4983
     20 C15         3.0741  -11.9712   -6.0380 C.3       1 <0>         0.0548
     21 C16         4.5952  -11.9650   -6.2031 C.3       1 <0>        -0.1792
     22 C17         2.6264  -13.3267   -5.4875 C.3       1 <0>        -0.1779
     23 C18         2.4127  -11.7286   -7.3962 C.3       1 <0>        -0.1796
     24 O5          3.4041   -8.6607   -3.4286 O.3       1 <0>        -0.5416
     25 C19         1.1392   -4.8208   -1.9444 C.3       1 <0>        -0.0981
     26 H1          1.0039    1.9031    0.0027 H         1 <0>         0.0690
     27 H2         -0.5459    1.8868   -0.8726 H         1 <0>         0.0689
     28 H3         -0.5289    1.8773    0.9072 H         1 <0>         0.0852
     29 H4          0.5293   -0.3651    0.8851 H         1 <0>         0.0736
     30 H5         -1.0205   -0.3814    0.0098 H         1 <0>         0.0735
     31 H6          3.3926   -1.1821   -5.9592 H         1 <0>         0.1450
     32 H7          4.1736   -3.0652   -7.3218 H         1 <0>         0.1467
     33 H8          3.7773   -5.3814   -6.6017 H         1 <0>         0.1355
     34 H9          2.5639   -7.0502   -6.2474 H         1 <0>         0.0854
     35 H10         4.1132   -7.0415   -5.3712 H         1 <0>         0.0811
     36 H11         1.6245   -8.5609   -4.4733 H         1 <0>         0.1352
     37 H12         2.6374   -9.4343   -6.6002 H         1 <0>         0.1481
     38 H13         4.1922   -9.6027   -5.7502 H         1 <0>         0.1424
     39 H14         3.1148  -11.0685   -4.2083 H         1 <0>         0.4324
     40 H15         5.0664  -12.1378   -5.2355 H         1 <0>         0.0837
     41 H16         4.8886  -12.7535   -6.8961 H         1 <0>         0.1074
     42 H17         4.9142  -10.9993   -6.5953 H         1 <0>         0.0806
     43 H18         1.5427  -13.3310   -5.3699 H         1 <0>         0.0835
     44 H19         2.9198  -14.1152   -6.1805 H         1 <0>         0.1079
     45 H20         3.0976  -13.4995   -4.5199 H         1 <0>         0.0836
     46 H21         2.7317  -10.7629   -7.7884 H         1 <0>         0.0811
     47 H22         2.7062  -12.5171   -8.0892 H         1 <0>         0.1075
     48 H23         1.3291  -11.7330   -7.2785 H         1 <0>         0.0838
     49 H24         4.3659   -8.6176   -3.5191 H         1 <0>         0.3904
     50 H25         0.1311   -5.1044   -2.2468 H         1 <0>         0.0804
     51 H26         1.8111   -5.6685   -2.0794 H         1 <0>         0.0788
     52 H27         1.1342   -4.5247   -0.8955 H         1 <0>         0.0910
     53 H28         1.6756  -10.9126   -4.9951 H         1 <0>         0.4289
@<TRIPOS>BOND
     1    1    2 1
     2    1   26 1
     3    1   27 1
     4    1   28 1
     5    2    3 1
     6    2   29 1
     7    2   30 1
     8    3    4 1
     9    4    5 2
    10    4    6 1
    11    6   10 1
    12    6    7 2
    13    7    8 1
    14    7   25 1
    15    8   14 ar
    16    8    9 ar
    17    9   10 1
    18    9   11 ar
    19   11   12 ar
    20   11   31 1
    21   12   13 ar
    22   12   32 1
    23   13   14 ar
    24   13   33 1
    25   14   15 1
    26   15   16 1
    27   16   17 1
    28   16   34 1
    29   16   35 1
    30   17   18 1
    31   17   24 1
    32   17   36 1
    33   18   19 1
    34   18   37 1
    35   18   38 1
    36   19   20 1
    37   19   39 1
    38   19   53 1
    39   20   21 1
    40   20   22 1
    41   20   23 1
    42   21   40 1
    43   21   41 1
    44   21   42 1
    45   22   43 1
    46   22   44 1
    47   22   45 1
    48   23   46 1
    49   23   47 1
    50   23   48 1
    51   24   49 1
    52   25   50 1
    53   25   51 1
    54   25   52 1
@<TRIPOS>MOLECULE
CHEMBL168893
   60    63     0     0     0
SMALL
USER_CHARGES

@<TRIPOS>ATOM
      1 C1         -0.0187    1.5258    0.0104 C.3       1 <0>        -0.1813
      2 C2          0.0021   -0.0041    0.0020 C.3       1 <0>         0.0588
      3 C3          0.7421   -0.5109    1.2415 C.3       1 <0>        -0.1822
      4 C4         -1.4333   -0.5336    0.0129 C.3       1 <0>        -0.0874
      5 C5         -2.1387   -0.0476    1.2528 C.ar      1 <0>        -0.1247
      6 C6         -2.0880   -0.8075    2.4147 C.ar      1 <0>        -0.0760
      7 C7         -2.7214   -0.3815    3.5447 C.ar      1 <0>        -0.0971
      8 C8         -3.4342    0.8445    3.5293 C.ar      1 <0>         0.1409
      9 C9         -3.4760    1.6087    2.3352 C.ar      1 <0>        -0.1916
     10 C10        -2.8280    1.1582    1.2233 C.ar      1 <0>        -0.0660
     11 N1         -4.0552    1.2714    4.6192 N.2       1 <0>        -0.3491
     12 N2         -4.6184    2.2439    4.6006 N.1       1 <0>         0.2975
     13 N3         -5.1696    3.1956    4.5825 N.1       1 <0>        -0.0935
     14 N4          0.6897   -0.4778   -1.2066 N.4       1 <0>        -0.4977
     15 C11         2.0678    0.0307   -1.2170 C.3       1 <0>        -0.0509
     16 C12         2.7840   -0.4628   -2.4758 C.3       1 <0>         0.0879
     17 C13         4.2531   -0.0383   -2.4263 C.3       1 <0>         0.0261
     18 O1          4.9483   -0.5972   -3.5427 O.3       1 <0>        -0.2912
     19 C14         6.2730   -0.3148   -3.6487 C.ar      1 <0>         0.2001
     20 C15         6.8932    0.4769   -2.6980 C.ar      1 <0>        -0.2445
     21 C16         8.2439    0.7648   -2.8051 C.ar      1 <0>        -0.0066
     22 C17         8.9864    0.2691   -3.8563 C.ar      1 <0>        -0.1589
     23 C18         8.3823   -0.5295   -4.8238 C.ar      1 <0>         0.2124
     24 C19         7.0166   -0.8272   -4.7147 C.ar      1 <0>        -0.1245
     25 C20         6.6811   -1.6833   -5.8667 C.ar      1 <0>        -0.0889
     26 C21         5.5034   -2.2864   -6.3024 C.ar      1 <0>        -0.0595
     27 C22         5.5086   -3.0492   -7.4502 C.ar      1 <0>        -0.1430
     28 C23         6.6806   -3.2177   -8.1715 C.ar      1 <0>        -0.0804
     29 C24         7.8530   -2.6271   -7.7516 C.ar      1 <0>        -0.1342
     30 C25         7.8678   -1.8529   -6.5954 C.ar      1 <0>         0.1337
     31 N5          8.8744   -1.1477   -5.9596 N.pl3     1 <0>        -0.6062
     32 H1          9.7952   -1.1019   -6.2612 H         1 <0>         0.4236
     33 I1         11.0276    0.7191   -3.9980 I         1 <0>        -0.0295
     34 O2          2.1628    0.1050   -3.6307 O.3       1 <0>        -0.5418
     35 H2          1.0039    1.9031    0.0027 H         1 <0>         0.0814
     36 H3         -0.5459    1.8868   -0.8726 H         1 <0>         0.0835
     37 H4         -0.5289    1.8773    0.9072 H         1 <0>         0.1096
     38 H5          0.2319   -0.1594    2.1383 H         1 <0>         0.1114
     39 H6          0.7568   -1.6008    1.2356 H         1 <0>         0.0850
     40 H7          1.7647   -0.1336    1.2338 H         1 <0>         0.0817
     41 H8         -1.9605   -0.1726   -0.8702 H         1 <0>         0.0973
     42 H9         -1.4185   -1.6235    0.0069 H         1 <0>         0.0992
     43 H10        -1.5443   -1.7406    2.4230 H         1 <0>         0.1365
     44 H11        -2.6808   -0.9747    4.4463 H         1 <0>         0.1464
     45 H12        -4.0148    2.5444    2.3080 H         1 <0>         0.1237
     46 H13        -2.8545    1.7396    0.3135 H         1 <0>         0.1304
     47 H14         0.7033   -1.4867   -1.2121 H         1 <0>         0.4290
     48 H15         2.0530    1.1205   -1.2110 H         1 <0>         0.1426
     49 H16         2.5950   -0.3304   -0.3340 H         1 <0>         0.1489
     50 H17         2.7213   -1.5498   -2.5270 H         1 <0>         0.1352
     51 H18         4.3186    1.0490   -2.4647 H         1 <0>         0.0806
     52 H19         4.7039   -0.3970   -1.5010 H         1 <0>         0.0851
     53 H20         6.3224    0.8717   -1.8705 H         1 <0>         0.1365
     54 H21         8.7198    1.3835   -2.0587 H         1 <0>         0.1409
     55 H22         4.5891   -2.1570   -5.7421 H         1 <0>         0.1270
     56 H23         4.5964   -3.5176   -7.7890 H         1 <0>         0.1292
     57 H24         6.6750   -3.8172   -9.0698 H         1 <0>         0.1337
     58 H25         8.7607   -2.7652   -8.3202 H         1 <0>         0.1288
     59 H26         2.1814    1.0716   -3.6522 H         1 <0>         0.3903
     60 H27         0.2017   -0.1436   -2.0240 H         1 <0>         0.4322
@<TRIPOS>BOND
     1    1    2 1
     2    1   35 1
     3    1   36 1
     4    1   37 1
     5    2    3 1
     6    2    4 1
     7    2   14 1
     8    3   38 1
     9    3   39 1
    10    3   40 1
    11    4    5 1
    12    4   41 1
    13    4   42 1
    14    5   10 ar
    15    5    6 ar
    16    6    7 ar
    17    6   43 1
    18    7    8 ar
    19    7   44 1
    20    8    9 ar
    21    8   11 1
    22    9   10 ar
    23    9   45 1
    24   10   46 1
    25   11   12 2
    26   12   13 2
    27   14   15 1
    28   14   47 1
    29   14   60 1
    30   15   16 1
    31   15   48 1
    32   15   49 1
    33   16   17 1
    34   16   34 1
    35   16   50 1
    36   17   18 1
    37   17   51 1
    38   17   52 1
    39   18   19 1
    40   19   24 ar
    41   19   20 ar
    42   20   21 ar
    43   20   53 1
    44   21   22 ar
    45   21   54 1
    46   22   23 ar
    47   22   33 1
    48   23   31 1
    49   23   24 ar
    50   24   25 1
    51   25   30 ar
    52   25   26 ar
    53   26   27 ar
    54   26   55 1
    55   27   28 ar
    56   27   56 1
    57   28   29 ar
    58   28   57 1
    59   29   30 ar
    60   29   58 1
    61   30   31 1
    62   31   32 1
    63   34   59 1
@<TRIPOS>MOLECULE
CHEMBL168893__1
   60    63     0     0     0
SMALL
USER_CHARGES

@<TRIPOS>ATOM
      1 C1         -0.0187    1.5258    0.0104 C.3       1 <0>        -0.1820
      2 C2          0.0021   -0.0041    0.0020 C.3       1 <0>         0.0588
      3 C3          0.7421   -0.5109    1.2415 C.3       1 <0>        -0.1817
      4 C4         -1.4333   -0.5336    0.0129 C.3       1 <0>        -0.0874
      5 C5         -2.1387   -0.0476    1.2528 C.ar      1 <0>        -0.1247
      6 C6         -2.0880   -0.8075    2.4147 C.ar      1 <0>        -0.0761
      7 C7         -2.7214   -0.3815    3.5447 C.ar      1 <0>        -0.0970
      8 C8         -3.4342    0.8445    3.5293 C.ar      1 <0>         0.1408
      9 C9         -3.4760    1.6087    2.3352 C.ar      1 <0>        -0.1915
     10 C10        -2.8280    1.1582    1.2233 C.ar      1 <0>        -0.0661
     11 N1         -4.0552    1.2714    4.6192 N.2       1 <0>        -0.3491
     12 N2         -4.6184    2.2439    4.6006 N.1       1 <0>         0.2974
     13 N3         -5.1696    3.1956    4.5825 N.1       1 <0>        -0.0935
     14 N4          0.6897   -0.4778   -1.2066 N.4       1 <0>        -0.4971
     15 C11         2.0678    0.0307   -1.2170 C.3       1 <0>        -0.0511
     16 C12         2.7840   -0.4628   -2.4758 C.3       1 <0>         0.0878
     17 C13         4.2193    0.0668   -2.4867 C.3       1 <0>         0.0261
     18 O1          4.8516   -0.2959   -3.7158 O.3       1 <0>        -0.2911
     19 C14         6.1397    0.1006   -3.8873 C.ar      1 <0>         0.2000
     20 C15         6.7845    0.8173   -2.8945 C.ar      1 <0>        -0.2444
     21 C16         8.0979    1.2215   -3.0684 C.ar      1 <0>        -0.0066
     22 C17         8.7786    0.9170   -4.2286 C.ar      1 <0>        -0.1588
     23 C18         8.1489    0.1968   -5.2402 C.ar      1 <0>         0.2123
     24 C19         6.8214   -0.2185   -5.0644 C.ar      1 <0>        -0.1245
     25 C20         6.4465   -0.9521   -6.2867 C.ar      1 <0>        -0.0889
     26 C21         5.2794   -1.5887   -6.7029 C.ar      1 <0>        -0.0595
     27 C22         5.2371   -2.2036   -7.9356 C.ar      1 <0>        -0.1430
     28 C23         6.3509   -2.1906   -8.7612 C.ar      1 <0>        -0.0804
     29 C24         7.5121   -1.5649   -8.3616 C.ar      1 <0>        -0.1342
     30 C25         7.5742   -0.9381   -7.1208 C.ar      1 <0>         0.1338
     31 N5          8.5816   -0.2383   -6.4803 N.pl3     1 <0>        -0.6062
     32 H1          9.4674   -0.0839   -6.8441 H         1 <0>         0.4236
     33 I1         10.7642    1.5401   -4.4697 I         1 <0>        -0.0295
     34 O2          2.8033   -1.8916   -2.4837 O.3       1 <0>        -0.5422
     35 H2          1.0039    1.9031    0.0027 H         1 <0>         0.0820
     36 H3         -0.5459    1.8868   -0.8726 H         1 <0>         0.0837
     37 H4         -0.5289    1.8773    0.9072 H         1 <0>         0.1097
     38 H5          0.2319   -0.1594    2.1383 H         1 <0>         0.1113
     39 H6          0.7568   -1.6008    1.2356 H         1 <0>         0.0848
     40 H7          1.7647   -0.1336    1.2338 H         1 <0>         0.0811
     41 H8         -1.9605   -0.1726   -0.8702 H         1 <0>         0.0972
     42 H9         -1.4185   -1.6235    0.0069 H         1 <0>         0.0993
     43 H10        -1.5443   -1.7406    2.4230 H         1 <0>         0.1364
     44 H11        -2.6808   -0.9747    4.4463 H         1 <0>         0.1464
     45 H12        -4.0148    2.5444    2.3080 H         1 <0>         0.1236
     46 H13        -2.8545    1.7396    0.3135 H         1 <0>         0.1304
     47 H14         0.7033   -1.4867   -1.2121 H         1 <0>         0.4321
     48 H15         2.0530    1.1205   -1.2110 H         1 <0>         0.1488
     49 H16         2.5950   -0.3304   -0.3340 H         1 <0>         0.1427
     50 H17         2.2568   -0.1017   -3.3589 H         1 <0>         0.1358
     51 H18         4.2068    1.1525   -2.3912 H         1 <0>         0.0851
     52 H19         4.7722   -0.3649   -1.6524 H         1 <0>         0.0806
     53 H20         6.2620    1.0626   -1.9816 H         1 <0>         0.1364
     54 H21         8.5934    1.7806   -2.2884 H         1 <0>         0.1409
     55 H22         4.4105   -1.6006   -6.0616 H         1 <0>         0.1270
     56 H23         4.3331   -2.6978   -8.2595 H         1 <0>         0.1292
     57 H24         6.3083   -2.6752   -9.7254 H         1 <0>         0.1337
     58 H25         8.3744   -1.5611   -9.0119 H         1 <0>         0.1288
     59 H26         3.2576   -2.2830   -1.7250 H         1 <0>         0.3900
     60 H27         0.2017   -0.1436   -2.0240 H         1 <0>         0.4289
@<TRIPOS>BOND
     1    1    2 1
     2    1   35 1
     3    1   36 1
     4    1   37 1
     5    2    3 1
     6    2    4 1
     7    2   14 1
     8    3   38 1
     9    3   39 1
    10    3   40 1
    11    4    5 1
    12    4   41 1
    13    4   42 1
    14    5   10 ar
    15    5    6 ar
    16    6    7 ar
    17    6   43 1
    18    7    8 ar
    19    7   44 1
    20    8    9 ar
    21    8   11 1
    22    9   10 ar
    23    9   45 1
    24   10   46 1
    25   11   12 2
    26   12   13 2
    27   14   15 1
    28   14   47 1
    29   14   60 1
    30   15   16 1
    31   15   48 1
    32   15   49 1
    33   16   17 1
    34   16   34 1
    35   16   50 1
    36   17   18 1
    37   17   51 1
    38   17   52 1
    39   18   19 1
    40   19   24 ar
    41   19   20 ar
    42   20   21 ar
    43   20   53 1
    44   21   22 ar
    45   21   54 1
    46   22   23 ar
    47   22   33 1
    48   23   31 1
    49   23   24 ar
    50   24   25 1
    51   25   30 ar
    52   25   26 ar
    53   26   27 ar
    54   26   55 1
    55   27   28 ar
    56   27   56 1
    57   28   29 ar
    58   28   57 1
    59   29   30 ar
    60   29   58 1
    61   30   31 1
    62   31   32 1
    63   34   59 1
@<TRIPOS>MOLECULE
CHEMBL236514
   54    58     0     0     0
SMALL
USER_CHARGES

@<TRIPOS>ATOM
      1 C1         -0.0167    1.3833    0.0096 C.ar      1 <0>        -0.0617
      2 C2          1.1579    2.1030    0.0023 C.ar      1 <0>        -0.1567
      3 C3          2.3812    1.4395   -0.0134 C.ar      1 <0>         0.1320
      4 C4          2.4054    0.0341   -0.0212 C.ar      1 <0>        -0.1320
      5 C5          3.8196   -0.3477   -0.0373 C.2       1 <0>        -0.1883
      6 C6          4.5327    0.7892   -0.0383 C.2       1 <0>         0.0491
      7 N1          3.6897    1.8682   -0.0241 N.pl3     1 <0>        -0.5918
      8 H1          3.9721    2.7962   -0.0222 H         1 <0>         0.4218
      9 C7          1.2041   -0.6852   -0.0136 C.ar      1 <0>         0.1688
     10 C8          0.0021   -0.0041    0.0020 C.ar      1 <0>        -0.2424
     11 O1          1.2203   -2.0438   -0.0214 O.3       1 <0>        -0.2967
     12 C9         -0.0451   -2.7078   -0.0127 C.3       1 <0>         0.0300
     13 C10         0.1735   -4.2221   -0.0234 C.3       1 <0>         0.0883
     14 H2          0.8005   -4.4927   -0.8729 H         1 <0>         0.1346
     15 C11        -1.1771   -4.9314   -0.1399 C.3       1 <0>        -0.0506
     16 N2         -0.9673   -6.3853   -0.1502 N.4       1 <0>        -0.4978
     17 C12        -2.2640   -7.0665   -0.2621 C.3       1 <0>         0.0598
     18 C13        -3.1442   -6.6866    0.9304 C.3       1 <0>        -0.1270
     19 C14        -4.4948   -7.3960    0.8138 C.3       1 <0>        -0.0798
     20 C15        -4.2763   -8.9102    0.8032 C.3       1 <0>        -0.1202
     21 C16        -3.3961   -9.2901   -0.3892 C.3       1 <0>        -0.0792
     22 C17        -2.0455   -8.5807   -0.2727 C.3       1 <0>        -0.1265
     23 C18        -4.0850   -8.8651   -1.6876 C.3       1 <0>        -0.1202
     24 C19        -4.3036   -7.3508   -1.6769 C.3       1 <0>        -0.0797
     25 C20        -5.1838   -6.9710   -0.4845 C.3       1 <0>        -0.1196
     26 C21        -2.9530   -6.6415   -1.5604 C.3       1 <0>        -0.1278
     27 O2          0.8169   -4.6190    1.1892 O.3       1 <0>        -0.5430
     28 H3         -0.9625    1.9045    0.0260 H         1 <0>         0.1311
     29 H4          1.1294    3.1826    0.0084 H         1 <0>         0.1259
     30 H5          4.2135   -1.3532   -0.0463 H         1 <0>         0.1484
     31 H6          5.6112    0.8449   -0.0482 H         1 <0>         0.1756
     32 H7         -0.9273   -0.5542    0.0080 H         1 <0>         0.1237
     33 H8         -0.5968   -2.4266    0.8843 H         1 <0>         0.0765
     34 H9         -0.6142   -2.4166   -0.8956 H         1 <0>         0.0812
     35 H10        -1.8042   -4.6608    0.7096 H         1 <0>         0.1407
     36 H11        -1.6679   -4.6287   -1.0649 H         1 <0>         0.1474
     37 H12        -0.3869   -6.6359   -0.9365 H         1 <0>         0.4279
     38 H13        -2.6534   -6.9893    1.8553 H         1 <0>         0.0877
     39 H14        -3.2999   -5.6078    0.9379 H         1 <0>         0.0855
     40 H15        -5.1219   -7.1253    1.6633 H         1 <0>         0.0927
     41 H16        -3.7855   -9.2130    1.7281 H         1 <0>         0.0716
     42 H17        -5.2385   -9.4156    0.7201 H         1 <0>         0.0806
     43 H18        -3.2404  -10.3689   -0.3968 H         1 <0>         0.0935
     44 H19        -1.4185   -8.8514   -1.1222 H         1 <0>         0.0880
     45 H20        -1.5547   -8.8835    0.6522 H         1 <0>         0.0880
     46 H21        -3.4580   -9.1358   -2.5371 H         1 <0>         0.0717
     47 H22        -5.0472   -9.3705   -1.7706 H         1 <0>         0.0805
     48 H23        -4.7944   -7.0481   -2.6019 H         1 <0>         0.0929
     49 H24        -6.1459   -7.4763   -0.5675 H         1 <0>         0.0808
     50 H25        -5.3394   -5.8922   -0.4769 H         1 <0>         0.0703
     51 H26        -3.1087   -5.5627   -1.5528 H         1 <0>         0.0862
     52 H27        -2.3259   -6.9121   -2.4099 H         1 <0>         0.0881
     53 H28         0.3144   -4.4088    1.9882 H         1 <0>         0.3891
     54 H29        -0.5130   -6.6656    0.7061 H         1 <0>         0.4308
@<TRIPOS>BOND
     1    1   10 ar
     2    1    2 ar
     3    1   28 1
     4    2    3 ar
     5    2   29 1
     6    3    7 1
     7    3    4 ar
     8    4    5 1
     9    4    9 ar
    10    5    6 2
    11    5   30 1
    12    6    7 1
    13    6   31 1
    14    7    8 1
    15    9   10 ar
    16    9   11 1
    17   10   32 1
    18   11   12 1
    19   12   13 1
    20   12   33 1
    21   12   34 1
    22   13   14 1
    23   13   15 1
    24   13   27 1
    25   15   16 1
    26   15   35 1
    27   15   36 1
    28   16   17 1
    29   16   37 1
    30   16   54 1
    31   17   22 1
    32   17   26 1
    33   17   18 1
    34   18   19 1
    35   18   38 1
    36   18   39 1
    37   19   25 1
    38   19   20 1
    39   19   40 1
    40   20   21 1
    41   20   41 1
    42   20   42 1
    43   21   22 1
    44   21   23 1
    45   21   43 1
    46   22   44 1
    47   22   45 1
    48   23   24 1
    49   23   46 1
    50   23   47 1
    51   24   25 1
    52   24   26 1
    53   24   48 1
    54   25   49 1
    55   25   50 1
    56   26   51 1
    57   26   52 1
    58   27   53 1
@<TRIPOS>MOLECULE
CHEMBL38205
   54    56     0     0     0
SMALL
USER_CHARGES

@<TRIPOS>ATOM
      1 C1         -0.0173    1.4248    0.0099 C.3       1 <0>         0.0226
      2 O1          0.0021   -0.0041    0.0020 O.3       1 <0>        -0.3013
      3 C2          0.6062   -0.6075   -1.0564 C.ar      1 <0>         0.1186
      4 C3          1.1729    0.1590   -2.0621 C.ar      1 <0>        -0.1722
      5 C4          1.7870   -0.4560   -3.1371 C.ar      1 <0>        -0.1022
      6 C5          1.8372   -1.8356   -3.2121 C.ar      1 <0>        -0.1105
      7 C6          1.2734   -2.6062   -2.2124 C.ar      1 <0>        -0.1656
      8 C7          0.6617   -1.9961   -1.1290 C.ar      1 <0>         0.1057
      9 O2          0.1119   -2.7526   -0.1417 O.3       1 <0>        -0.3008
     10 C8          0.2064   -4.1715   -0.2827 C.3       1 <0>         0.0251
     11 C9          2.5075   -2.5009   -4.3865 C.3       1 <0>        -0.0954
     12 C10         3.9888   -2.7191   -4.0718 C.3       1 <0>        -0.0073
     13 N1          4.6422   -3.3676   -5.2166 N.4       1 <0>        -0.5043
     14 C11         6.0644   -3.5771   -4.9145 C.3       1 <0>        -0.0417
     15 C12         6.7450   -4.2525   -6.1068 C.3       1 <0>         0.0860
     16 C13         8.1946   -4.5836   -5.7463 C.3       1 <0>         0.0292
     17 O3          8.7955   -5.3174   -6.8152 O.3       1 <0>        -0.2971
     18 C14        10.0916   -5.6922   -6.6539 C.ar      1 <0>         0.1684
     19 C15        10.7699   -5.3687   -5.4945 C.ar      1 <0>        -0.2421
     20 C16        12.0933   -5.7509   -5.3275 C.ar      1 <0>        -0.0619
     21 C17        12.7515   -6.4563   -6.3109 C.ar      1 <0>        -0.1564
     22 C18        12.0893   -6.7938   -7.4876 C.ar      1 <0>         0.1319
     23 C19        10.7469   -6.4138   -7.6590 C.ar      1 <0>        -0.1320
     24 C20        10.3470   -6.9177   -8.9751 C.2       1 <0>        -0.1886
     25 C21        11.4130   -7.5459   -9.4950 C.2       1 <0>         0.0493
     26 N2         12.4667   -7.4747   -8.6234 N.pl3     1 <0>        -0.5917
     27 H1         13.3450   -7.8562   -8.7784 H         1 <0>         0.4218
     28 O4          6.7232   -3.3699   -7.2304 O.3       1 <0>        -0.5428
     29 H2          1.0053    1.8021    0.0021 H         1 <0>         0.0585
     30 H3         -0.5445    1.7859   -0.8732 H         1 <0>         0.0594
     31 H4         -0.5275    1.7763    0.9067 H         1 <0>         0.1081
     32 H5          1.1344    1.2368   -2.0063 H         1 <0>         0.1423
     33 H6          2.2283    0.1425   -3.9203 H         1 <0>         0.1296
     34 H7          1.3136   -3.6837   -2.2735 H         1 <0>         0.1371
     35 H8         -0.2705   -4.6540    0.5704 H         1 <0>         0.1072
     36 H9         -0.2940   -4.4795   -1.2008 H         1 <0>         0.0567
     37 H10         1.2558   -4.4633   -0.3254 H         1 <0>         0.0540
     38 H11         2.0316   -3.4623   -4.5797 H         1 <0>         0.0955
     39 H12         2.4129   -1.8652   -5.2669 H         1 <0>         0.0980
     40 H13         4.4646   -1.7577   -3.8786 H         1 <0>         0.1348
     41 H14         4.0834   -3.3548   -3.1915 H         1 <0>         0.1337
     42 H15         4.2017   -4.2575   -5.3955 H         1 <0>         0.4304
     43 H16         6.5403   -2.6157   -4.7213 H         1 <0>         0.1405
     44 H17         6.1591   -4.2128   -4.0341 H         1 <0>         0.1464
     45 H18         6.2137   -5.1710   -6.3560 H         1 <0>         0.1346
     46 H19         8.7487   -3.6591   -5.5837 H         1 <0>         0.0771
     47 H20         8.2148   -5.1841   -4.8369 H         1 <0>         0.0814
     48 H21        10.2679   -4.8155   -4.7146 H         1 <0>         0.1239
     49 H22        12.6131   -5.4923   -4.4168 H         1 <0>         0.1313
     50 H23        13.7818   -6.7472   -6.1688 H         1 <0>         0.1260
     51 H24         9.3780   -6.8056   -9.4387 H         1 <0>         0.1485
     52 H25        11.4387   -8.0277  -10.4612 H         1 <0>         0.1756
     53 H26         7.1787   -2.5303   -7.0799 H         1 <0>         0.3903
     54 H27         4.5546   -2.7791   -6.0315 H         1 <0>         0.4340
@<TRIPOS>BOND
     1    1    2 1
     2    1   29 1
     3    1   30 1
     4    1   31 1
     5    2    3 1
     6    3    8 ar
     7    3    4 ar
     8    4    5 ar
     9    4   32 1
    10    5    6 ar
    11    5   33 1
    12    6    7 ar
    13    6   11 1
    14    7    8 ar
    15    7   34 1
    16    8    9 1
    17    9   10 1
    18   10   35 1
    19   10   36 1
    20   10   37 1
    21   11   12 1
    22   11   38 1
    23   11   39 1
    24   12   13 1
    25   12   40 1
    26   12   41 1
    27   13   14 1
    28   13   42 1
    29   13   54 1
    30   14   15 1
    31   14   43 1
    32   14   44 1
    33   15   16 1
    34   15   28 1
    35   15   45 1
    36   16   17 1
    37   16   46 1
    38   16   47 1
    39   17   18 1
    40   18   23 ar
    41   18   19 ar
    42   19   20 ar
    43   19   48 1
    44   20   21 ar
    45   20   49 1
    46   21   22 ar
    47   21   50 1
    48   22   26 1
    49   22   23 ar
    50   23   24 1
    51   24   25 2
    52   24   51 1
    53   25   26 1
    54   25   52 1
    55   26   27 1
    56   28   53 1
@<TRIPOS>MOLECULE
CHEMBL38205__1
   54    56     0     0     0
SMALL
USER_CHARGES

@<TRIPOS>ATOM
      1 C1         -0.0173    1.4248    0.0099 C.3       1 <0>         0.0226
      2 O1          0.0021   -0.0041    0.0020 O.3       1 <0>        -0.3013
      3 C2          0.6062   -0.6075   -1.0564 C.ar      1 <0>         0.1186
      4 C3          1.1729    0.1590   -2.0621 C.ar      1 <0>        -0.1722
      5 C4          1.7870   -0.4560   -3.1371 C.ar      1 <0>        -0.1022
      6 C5          1.8372   -1.8356   -3.2121 C.ar      1 <0>        -0.1105
      7 C6          1.2734   -2.6062   -2.2124 C.ar      1 <0>        -0.1656
      8 C7          0.6617   -1.9961   -1.1290 C.ar      1 <0>         0.1057
      9 O2          0.1119   -2.7526   -0.1417 O.3       1 <0>        -0.3008
     10 C8          0.2064   -4.1715   -0.2827 C.3       1 <0>         0.0251
     11 C9          2.5075   -2.5009   -4.3865 C.3       1 <0>        -0.0953
     12 C10         3.9888   -2.7191   -4.0718 C.3       1 <0>        -0.0073
     13 N1          4.6422   -3.3676   -5.2166 N.4       1 <0>        -0.5038
     14 C11         6.0644   -3.5771   -4.9145 C.3       1 <0>        -0.0419
     15 C12         6.7450   -4.2525   -6.1068 C.3       1 <0>         0.0858
     16 C13         8.2263   -4.4707   -5.7922 C.3       1 <0>         0.0292
     17 O3          8.8864   -4.9940   -6.9465 O.3       1 <0>        -0.2970
     18 C14        10.2168   -5.2463   -6.8349 C.ar      1 <0>         0.1684
     19 C15        10.8734   -5.0031   -5.6438 C.ar      1 <0>        -0.2421
     20 C16        12.2318   -5.2605   -5.5276 C.ar      1 <0>        -0.0618
     21 C17        12.9470   -5.7606   -6.5935 C.ar      1 <0>        -0.1565
     22 C18        12.3079   -6.0137   -7.8037 C.ar      1 <0>         0.1319
     23 C19        10.9306   -5.7600   -7.9245 C.ar      1 <0>        -0.1320
     24 C20        10.5678   -6.1315   -9.2943 C.2       1 <0>        -0.1885
     25 C21        11.6868   -6.5712   -9.8908 C.2       1 <0>         0.0493
     26 N2         12.7392   -6.5001   -9.0175 N.pl3     1 <0>        -0.5917
     27 H1         13.6505   -6.7631   -9.2205 H         1 <0>         0.4218
     28 O4          6.1211   -5.5129   -6.3601 O.3       1 <0>        -0.5434
     29 H2          1.0053    1.8021    0.0021 H         1 <0>         0.0585
     30 H3         -0.5445    1.7859   -0.8732 H         1 <0>         0.0594
     31 H4         -0.5275    1.7763    0.9067 H         1 <0>         0.1081
     32 H5          1.1344    1.2368   -2.0063 H         1 <0>         0.1423
     33 H6          2.2283    0.1425   -3.9203 H         1 <0>         0.1297
     34 H7          1.3136   -3.6837   -2.2735 H         1 <0>         0.1370
     35 H8         -0.2705   -4.6540    0.5704 H         1 <0>         0.1072
     36 H9         -0.2940   -4.4795   -1.2008 H         1 <0>         0.0568
     37 H10         1.2558   -4.4633   -0.3254 H         1 <0>         0.0539
     38 H11         2.0316   -3.4623   -4.5797 H         1 <0>         0.0956
     39 H12         2.4129   -1.8652   -5.2669 H         1 <0>         0.0980
     40 H13         4.4646   -1.7577   -3.8786 H         1 <0>         0.1353
     41 H14         4.0834   -3.3548   -3.1915 H         1 <0>         0.1331
     42 H15         4.2017   -4.2575   -5.3955 H         1 <0>         0.4331
     43 H16         6.5403   -2.6157   -4.7213 H         1 <0>         0.1473
     44 H17         6.1591   -4.2128   -4.0341 H         1 <0>         0.1397
     45 H18         6.6503   -3.6168   -6.9872 H         1 <0>         0.1357
     46 H19         8.6820   -3.5209   -5.5123 H         1 <0>         0.0818
     47 H20         8.3223   -5.1768   -4.9673 H         1 <0>         0.0767
     48 H21        10.3266   -4.6105   -4.7992 H         1 <0>         0.1239
     49 H22        12.7340   -5.0664   -4.5914 H         1 <0>         0.1312
     50 H23        14.0041   -5.9559   -6.4901 H         1 <0>         0.1260
     51 H24         9.5861   -6.0648   -9.7394 H         1 <0>         0.1485
     52 H25        11.7497   -6.9203  -10.9109 H         1 <0>         0.1756
     53 H26         6.1671   -6.1308   -5.6177 H         1 <0>         0.3897
     54 H27         4.5546   -2.7791   -6.0315 H         1 <0>         0.4311
@<TRIPOS>BOND
     1    1    2 1
     2    1   29 1
     3    1   30 1
     4    1   31 1
     5    2    3 1
     6    3    8 ar
     7    3    4 ar
     8    4    5 ar
     9    4   32 1
    10    5    6 ar
    11    5   33 1
    12    6    7 ar
    13    6   11 1
    14    7    8 ar
    15    7   34 1
    16    8    9 1
    17    9   10 1
    18   10   35 1
    19   10   36 1
    20   10   37 1
    21   11   12 1
    22   11   38 1
    23   11   39 1
    24   12   13 1
    25   12   40 1
    26   12   41 1
    27   13   14 1
    28   13   42 1
    29   13   54 1
    30   14   15 1
    31   14   43 1
    32   14   44 1
    33   15   16 1
    34   15   28 1
    35   15   45 1
    36   16   17 1
    37   16   46 1
    38   16   47 1
    39   17   18 1
    40   18   23 ar
    41   18   19 ar
    42   19   20 ar
    43   19   48 1
    44   20   21 ar
    45   20   49 1
    46   21   22 ar
    47   21   50 1
    48   22   26 1
    49   22   23 ar
    50   23   24 1
    51   24   25 2
    52   24   51 1
    53   25   26 1
    54   25   52 1
    55   26   27 1
    56   28   53 1
@<TRIPOS>MOLECULE
CHEMBL457199
   64    67     0     0     0
SMALL
USER_CHARGES

@<TRIPOS>ATOM
      1 C1         -0.0112    1.5053    0.2624 C.3       1 <0>        -0.1453
      2 C2          0.0013   -0.0019   -0.0003 C.3       1 <0>         0.0668
      3 C3          0.8152   -0.7028    1.0893 C.3       1 <0>        -0.1783
      4 O1         -1.3386   -0.4987    0.0122 O.3       1 <0>        -0.2548
      5 C4         -1.5797   -1.6367   -0.6849 C.ar      1 <0>         0.1629
      6 C5         -0.5337   -2.3265   -1.2743 C.ar      1 <0>        -0.2129
      7 C6         -0.7887   -3.4941   -1.9885 C.ar      1 <0>        -0.0470
      8 C7         -2.0963   -3.9705   -2.1119 C.ar      1 <0>        -0.1577
      9 C8         -3.1326   -3.2965   -1.5345 C.ar      1 <0>        -0.0520
     10 C9         -2.8910   -2.1246   -0.8076 C.ar      1 <0>        -0.1478
     11 C10        -4.0077   -1.4031   -0.1800 C.2       1 <0>         0.5170
     12 O2         -5.1495   -1.8296   -0.2879 O.co2     1 <0>        -0.6916
     13 O3         -3.7953   -0.3760    0.4504 O.co2     1 <0>        -0.6608
     14 C11         0.3304   -4.2338   -2.6202 C.ar      1 <0>        -0.0044
     15 C12         1.6387   -3.7676   -2.4970 C.ar      1 <0>        -0.1036
     16 C13         2.6685   -4.4662   -3.0859 C.ar      1 <0>        -0.1079
     17 C14         2.4181   -5.6301   -3.8042 C.ar      1 <0>        -0.0997
     18 C15         1.1265   -6.0927   -3.9333 C.ar      1 <0>        -0.0883
     19 C16         0.0837   -5.4010   -3.3353 C.ar      1 <0>        -0.1100
     20 C17         0.7851   -7.3371   -4.7109 C.3       1 <0>        -0.0908
     21 C18         2.0293   -8.1969   -4.9230 C.3       1 <0>         0.0253
     22 H1          2.3537   -8.6145   -3.9699 H         1 <0>         0.1446
     23 C19         3.1375   -7.3097   -5.5021 C.3       1 <0>        -0.1361
     24 C20         3.5978   -6.3423   -4.4137 C.3       1 <0>        -0.0725
     25 N1          1.7245   -9.2850   -5.8617 N.4       1 <0>        -0.5016
     26 C21         0.7306  -10.1852   -5.2618 C.3       1 <0>        -0.0481
     27 C22         0.4131  -11.3185   -6.2394 C.3       1 <0>         0.1374
     28 H2          1.3239  -11.8763   -6.4571 H         1 <0>         0.1330
     29 C23        -0.6065  -12.2419   -5.6240 C.ar      1 <0>        -0.1400
     30 C24        -1.9542  -11.9547   -5.7342 C.ar      1 <0>        -0.0917
     31 C25        -2.8899  -12.8013   -5.1700 C.ar      1 <0>        -0.1024
     32 C26        -2.4773  -13.9363   -4.4949 C.ar      1 <0>        -0.0190
     33 C27        -1.1283  -14.2231   -4.3850 C.ar      1 <0>        -0.1054
     34 C28        -0.1939  -13.3788   -4.9545 C.ar      1 <0>        -0.0883
     35 Cl1        -3.6519  -14.9997   -3.7855 Cl        1 <0>        -0.0479
     36 O4         -0.1106  -10.7701   -7.4506 O.3       1 <0>        -0.5476
     37 H3          1.0108    1.8842    0.2529 H         1 <0>         0.0688
     38 H4         -0.5910    2.0046   -0.5139 H         1 <0>         0.0651
     39 H5         -0.4622    1.7009    1.2353 H         1 <0>         0.0703
     40 H6          0.4523   -0.1975   -0.9731 H         1 <0>         0.0622
     41 H7          0.8240   -1.7766    0.9022 H         1 <0>         0.0574
     42 H8          1.8372   -0.3239    1.0798 H         1 <0>         0.0657
     43 H9          0.3642   -0.5072    2.0622 H         1 <0>         0.0700
     44 H10         0.4776   -1.9594   -1.1806 H         1 <0>         0.1262
     45 H11        -2.2879   -4.8766   -2.6675 H         1 <0>         0.1140
     46 H12        -4.1408   -3.6704   -1.6344 H         1 <0>         0.1358
     47 H13         1.8430   -2.8633   -1.9430 H         1 <0>         0.1300
     48 H14         3.6821   -4.1059   -2.9892 H         1 <0>         0.1262
     49 H15        -0.9274   -5.7690   -3.4290 H         1 <0>         0.1295
     50 H16         0.0406   -7.9120   -4.1602 H         1 <0>         0.0959
     51 H17         0.3746   -7.0538   -5.6801 H         1 <0>         0.0953
     52 H18         3.9755   -7.9298   -5.8205 H         1 <0>         0.0911
     53 H19         2.7515   -6.7484   -6.3530 H         1 <0>         0.0933
     54 H20         4.2755   -5.6078   -4.8489 H         1 <0>         0.0946
     55 H21         4.1225   -6.8985   -3.6368 H         1 <0>         0.0853
     56 H22         1.3547   -8.8978   -6.7169 H         1 <0>         0.4300
     57 H23         1.1300  -10.6035   -4.3379 H         1 <0>         0.1460
     58 H24        -0.1802   -9.6274   -5.0441 H         1 <0>         0.1395
     59 H25        -2.2761  -11.0685   -6.2609 H         1 <0>         0.1333
     60 H26        -3.9427  -12.5766   -5.2558 H         1 <0>         0.1434
     61 H27        -0.8057  -15.1088   -3.8578 H         1 <0>         0.1424
     62 H28         0.8589  -13.6052   -4.8729 H         1 <0>         0.1371
     63 H29        -0.9232  -10.2595   -7.3321 H         1 <0>         0.3897
     64 H30         2.5676   -9.8014   -6.0632 H         1 <0>         0.4288
@<TRIPOS>BOND
     1    1    2 1
     2    1   37 1
     3    1   38 1
     4    1   39 1
     5    2    3 1
     6    2    4 1
     7    2   40 1
     8    3   41 1
     9    3   42 1
    10    3   43 1
    11    4    5 1
    12    5   10 ar
    13    5    6 ar
    14    6    7 ar
    15    6   44 1
    16    7    8 ar
    17    7   14 1
    18    8    9 ar
    19    8   45 1
    20    9   10 ar
    21    9   46 1
    22   10   11 1
    23   11   12 2
    24   11   13 1
    25   14   19 ar
    26   14   15 ar
    27   15   16 ar
    28   15   47 1
    29   16   17 ar
    30   16   48 1
    31   17   24 1
    32   17   18 ar
    33   18   19 ar
    34   18   20 1
    35   19   49 1
    36   20   21 1
    37   20   50 1
    38   20   51 1
    39   21   22 1
    40   21   23 1
    41   21   25 1
    42   23   24 1
    43   23   52 1
    44   23   53 1
    45   24   54 1
    46   24   55 1
    47   25   26 1
    48   25   56 1
    49   25   64 1
    50   26   27 1
    51   26   57 1
    52   26   58 1
    53   27   28 1
    54   27   29 1
    55   27   36 1
    56   29   34 ar
    57   29   30 ar
    58   30   31 ar
    59   30   59 1
    60   31   32 ar
    61   31   60 1
    62   32   33 ar
    63   32   35 1
    64   33   34 ar
    65   33   61 1
    66   34   62 1
    67   36   63 1
@<TRIPOS>MOLECULE
CHEMBL369346
   64    66     0     0     0
SMALL
USER_CHARGES

@<TRIPOS>ATOM
      1 C1         -1.2839   -1.4269   -0.2056 C.ar      1 <0>        -0.1476
      2 C2         -0.3070   -0.4487   -0.1811 C.ar      1 <0>        -0.0764
      3 C3          1.0279   -0.8041   -0.1704 C.ar      1 <0>        -0.1447
      4 C4          1.3880   -2.1438   -0.1839 C.ar      1 <0>         0.1168
      5 C5          0.4059   -3.1234   -0.2080 C.ar      1 <0>        -0.2096
      6 C6         -0.9276   -2.7628   -0.2191 C.ar      1 <0>        -0.0799
      7 O1          2.7005   -2.4960   -0.1739 O.3       1 <0>        -0.3022
      8 C7          2.9973   -3.8937   -0.1887 C.3       1 <0>         0.0307
      9 C8          4.5142   -4.0932   -0.1745 C.3       1 <0>         0.0875
     10 H1          4.9605   -3.5452   -1.0043 H         1 <0>         0.1346
     11 C9          4.8341   -5.5826   -0.3160 C.3       1 <0>        -0.0479
     12 N1          6.2905   -5.7741   -0.3023 N.4       1 <0>        -0.5005
     13 C10         6.5977   -7.2042   -0.4382 C.3       1 <0>         0.0352
     14 H2          6.1162   -7.5957   -1.3344 H         1 <0>         0.1516
     15 C11         8.1120   -7.3923   -0.5493 C.3       1 <0>        -0.0902
     16 C12         8.6052   -6.7558   -1.8231 C.ar      1 <0>        -0.1461
     17 C13         8.6545   -7.4960   -2.9901 C.ar      1 <0>        -0.0811
     18 C14         9.1056   -6.9155   -4.1593 C.ar      1 <0>        -0.1101
     19 C15         9.5098   -5.5869   -4.1621 C.ar      1 <0>         0.1827
     20 C16         9.4590   -4.8463   -2.9885 C.ar      1 <0>        -0.1352
     21 C17         9.0020   -5.4312   -1.8238 C.ar      1 <0>        -0.1161
     22 N2          9.9678   -4.9959   -5.3450 N.am      1 <0>        -0.6814
     23 C18         9.4492   -5.3719   -6.5308 C.2       1 <0>         0.7104
     24 O2          8.5194   -6.1545   -6.5670 O.2       1 <0>        -0.5523
     25 N3          9.9614   -4.8803   -7.6765 N.am      1 <0>        -0.6755
     26 C19         9.3558   -5.1845   -8.9008 C.ar      1 <0>         0.1635
     27 C20         7.9792   -5.3540   -8.9732 C.ar      1 <0>        -0.0716
     28 C21         7.3845   -5.6537  -10.1830 C.ar      1 <0>        -0.0937
     29 C22         8.1583   -5.7851  -11.3217 C.ar      1 <0>        -0.0651
     30 C23         9.5290   -5.6175  -11.2529 C.ar      1 <0>        -0.0248
     31 C24        10.1292   -5.3120  -10.0469 C.ar      1 <0>        -0.0843
     32 N4         10.3534   -5.7596  -12.4740 N.pl3     1 <0>         0.0300
     33 O3          9.8282   -6.0220  -13.5308 O.2       1 <0>        -0.1454
     34 O4         11.5520   -5.6132  -12.4145 O.3       1 <0>        -0.1532
     35 C25         6.0790   -7.9562    0.7892 C.3       1 <0>         0.0506
     36 O5          6.7933   -7.5246    1.9491 O.3       1 <0>        -0.5749
     37 O6          5.0470   -3.6067    1.0590 O.3       1 <0>        -0.5413
     38 H3         -2.3270   -1.1471   -0.2097 H         1 <0>         0.1296
     39 H4         -0.5878    0.5941   -0.1707 H         1 <0>         0.1351
     40 H5          1.7906   -0.0396   -0.1520 H         1 <0>         0.1330
     41 H6          0.6837   -4.1670   -0.2188 H         1 <0>         0.1232
     42 H7         -1.6925   -3.5251   -0.2379 H         1 <0>         0.1284
     43 H8          2.5603   -4.3673    0.6904 H         1 <0>         0.0763
     44 H9          2.5801   -4.3442   -1.0893 H         1 <0>         0.0812
     45 H10         4.3878   -6.1306    0.5138 H         1 <0>         0.1399
     46 H11         4.4277   -5.9537   -1.2569 H         1 <0>         0.1468
     47 H12         6.7037   -5.2669   -1.0705 H         1 <0>         0.4278
     48 H13         8.6001   -6.9222    0.3044 H         1 <0>         0.1071
     49 H14         8.3460   -8.4568   -0.5607 H         1 <0>         0.1206
     50 H15         8.3403   -8.5293   -2.9871 H         1 <0>         0.1340
     51 H16         9.1442   -7.4942   -5.0703 H         1 <0>         0.1449
     52 H17         9.7731   -3.8129   -2.9874 H         1 <0>         0.1363
     53 H18         8.9584   -4.8545   -0.9117 H         1 <0>         0.1286
     54 H19        10.6584   -4.3156   -5.3114 H         1 <0>         0.4163
     55 H20        10.7497   -4.3157   -7.6524 H         1 <0>         0.4174
     56 H21         7.3744   -5.2518   -8.0842 H         1 <0>         0.1531
     57 H22         6.3142   -5.7859  -10.2399 H         1 <0>         0.1545
     58 H23         7.6909   -6.0195  -12.2667 H         1 <0>         0.1592
     59 H24        11.1994   -5.1765   -9.9946 H         1 <0>         0.1582
     60 H25         5.0165   -7.7503    0.9192 H         1 <0>         0.0714
     61 H26         6.2270   -9.0269    0.6487 H         1 <0>         0.0977
     62 H27         6.5162   -7.9607    2.7665 H         1 <0>         0.4097
     63 H28         4.6936   -4.0501    1.8423 H         1 <0>         0.3899
     64 H29         6.6667   -5.4306    0.5686 H         1 <0>         0.4372
@<TRIPOS>BOND
     1    1    6 ar
     2    1    2 ar
     3    1   38 1
     4    2    3 ar
     5    2   39 1
     6    3    4 ar
     7    3   40 1
     8    4    5 ar
     9    4    7 1
    10    5    6 ar
    11    5   41 1
    12    6   42 1
    13    7    8 1
    14    8    9 1
    15    8   43 1
    16    8   44 1
    17    9   10 1
    18    9   11 1
    19    9   37 1
    20   11   12 1
    21   11   45 1
    22   11   46 1
    23   12   13 1
    24   12   47 1
    25   12   64 1
    26   13   14 1
    27   13   15 1
    28   13   35 1
    29   15   16 1
    30   15   48 1
    31   15   49 1
    32   16   21 ar
    33   16   17 ar
    34   17   18 ar
    35   17   50 1
    36   18   19 ar
    37   18   51 1
    38   19   20 ar
    39   19   22 1
    40   20   21 ar
    41   20   52 1
    42   21   53 1
    43   22   23 am
    44   22   54 1
    45   23   24 2
    46   23   25 am
    47   25   26 1
    48   25   55 1
    49   26   31 ar
    50   26   27 ar
    51   27   28 ar
    52   27   56 1
    53   28   29 ar
    54   28   57 1
    55   29   30 ar
    56   29   58 1
    57   30   31 ar
    58   30   32 1
    59   31   59 1
    60   32   33 2
    61   32   34 1
    62   35   36 1
    63   35   60 1
    64   35   61 1
    65   36   62 1
    66   37   63 1
@<TRIPOS>MOLECULE
CHEMBL1082501
   61    65     0     0     0
SMALL
USER_CHARGES

@<TRIPOS>ATOM
      1 C1         -0.0166    1.3740    0.0096 C.ar      1 <0>        -0.1468
      2 C2          1.1714    2.0887    0.0021 C.ar      1 <0>        -0.0825
      3 C3          2.3836    1.4330   -0.0130 C.ar      1 <0>        -0.1380
      4 C4          2.4231    0.0421   -0.0214 C.ar      1 <0>         0.1338
      5 C5          1.2202   -0.6796   -0.0138 C.ar      1 <0>        -0.0923
      6 C6          0.0021   -0.0041    0.0020 C.ar      1 <0>        -0.0606
      7 C7          1.5889   -2.1068   -0.0256 C.ar      1 <0>        -0.1300
      8 C8          2.9901   -2.1563   -0.0395 C.ar      1 <0>         0.1819
      9 N1          3.4726   -0.8597   -0.0368 N.pl3     1 <0>        -0.6121
     10 H1          4.4118   -0.6174   -0.0448 H         1 <0>         0.4227
     11 C9          3.6293   -3.3927   -0.0533 C.ar      1 <0>        -0.1710
     12 C10         2.8884   -4.5554   -0.0536 C.ar      1 <0>        -0.0442
     13 C11         1.5040   -4.5098   -0.0403 C.ar      1 <0>        -0.2455
     14 C12         0.8481   -3.2912   -0.0258 C.ar      1 <0>         0.1790
     15 O1         -0.5096   -3.2469   -0.0123 O.3       1 <0>        -0.2956
     16 C13        -1.1995   -4.4984   -0.0135 C.3       1 <0>         0.0286
     17 C14        -2.7089   -4.2486    0.0028 C.3       1 <0>         0.0860
     18 C15        -3.4455   -5.5839    0.1273 C.3       1 <0>        -0.0434
     19 N2         -4.8947   -5.3441    0.1428 N.4       1 <0>        -0.3768
     20 C16        -5.2500   -4.5814    1.3456 C.3       1 <0>        -0.0129
     21 C17        -6.7457   -4.2589    1.3263 C.3       1 <0>        -0.1409
     22 C18        -7.5437   -5.5656    1.2943 C.3       1 <0>        -0.0957
     23 C19        -7.1112   -6.3867    0.0760 C.3       1 <0>        -0.1461
     24 C20        -5.6019   -6.6303    0.1417 C.3       1 <0>        -0.0056
     25 C21        -9.0376   -5.2506    1.1948 C.3       1 <0>        -0.0701
     26 C22        -9.8281   -6.5303    1.2869 C.ar      1 <0>        -0.1480
     27 C23       -10.1374   -7.2485    0.1417 C.ar      1 <0>        -0.0763
     28 C24       -10.8666   -8.4200    0.2745 C.ar      1 <0>        -0.1682
     29 C25       -11.2583   -8.8304    1.5350 C.ar      1 <0>         0.1037
     30 N3        -10.9465   -8.1216    2.6022 N.ar      1 <0>        -0.4788
     31 C26       -10.2490   -7.0058    2.5142 C.ar      1 <0>         0.1047
     32 O2         -3.0977   -3.6015   -1.2105 O.3       1 <0>        -0.5423
     33 H2         -0.9602    1.8991    0.0259 H         1 <0>         0.1275
     34 H3          1.1468    3.1684    0.0078 H         1 <0>         0.1320
     35 H4          3.3033    1.9990   -0.0188 H         1 <0>         0.1271
     36 H5         -0.9248   -0.5584    0.0079 H         1 <0>         0.1250
     37 H6          4.7082   -3.4413   -0.0642 H         1 <0>         0.1306
     38 H7          3.3921   -5.5107   -0.0647 H         1 <0>         0.1352
     39 H8          0.9349   -5.4277   -0.0410 H         1 <0>         0.1277
     40 H9         -0.9336   -5.0590   -0.9096 H         1 <0>         0.0781
     41 H10        -0.9163   -5.0702    0.8702 H         1 <0>         0.0826
     42 H11        -2.9629   -3.6131    0.8511 H         1 <0>         0.1345
     43 H12        -3.1914   -6.2194   -0.7210 H         1 <0>         0.1388
     44 H13        -3.1489   -6.0775    1.0527 H         1 <0>         0.1442
     45 H14        -5.0175   -5.1720    2.2317 H         1 <0>         0.1300
     46 H15        -4.6790   -3.6532    1.3686 H         1 <0>         0.1335
     47 H16        -7.0079   -3.6942    2.2209 H         1 <0>         0.1158
     48 H17        -6.9793   -3.6681    0.4406 H         1 <0>         0.0919
     49 H18        -7.3496   -6.1336    2.2041 H         1 <0>         0.0920
     50 H19        -7.6346   -7.3428    0.0771 H         1 <0>         0.1133
     51 H20        -7.3524   -5.8400   -0.8356 H         1 <0>         0.0906
     52 H21        -5.2907   -7.2147   -0.7242 H         1 <0>         0.1307
     53 H22        -5.3619   -7.1772    1.0534 H         1 <0>         0.1293
     54 H23        -9.3241   -4.5869    2.0106 H         1 <0>         0.0884
     55 H24        -9.2436   -4.7641    0.2413 H         1 <0>         0.0818
     56 H25        -9.8181   -6.9032   -0.8305 H         1 <0>         0.1324
     57 H26       -11.1256   -9.0045   -0.5959 H         1 <0>         0.1388
     58 H27       -11.8266   -9.7419    1.6469 H         1 <0>         0.1598
     59 H28       -10.0080   -6.4548    3.4113 H         1 <0>         0.1541
     60 H29        -2.9014   -4.1111   -2.0085 H         1 <0>         0.3899
     61 H30        -5.1561   -4.8169   -0.6768 H         1 <0>         0.4278
@<TRIPOS>BOND
     1    1    6 ar
     2    1    2 ar
     3    1   33 1
     4    2    3 ar
     5    2   34 1
     6    3    4 ar
     7    3   35 1
     8    4    9 1
     9    4    5 ar
    10    5    6 ar
    11    5    7 1
    12    6   36 1
    13    7   14 ar
    14    7    8 ar
    15    8    9 1
    16    8   11 ar
    17    9   10 1
    18   11   12 ar
    19   11   37 1
    20   12   13 ar
    21   12   38 1
    22   13   14 ar
    23   13   39 1
    24   14   15 1
    25   15   16 1
    26   16   17 1
    27   16   40 1
    28   16   41 1
    29   17   18 1
    30   17   32 1
    31   17   42 1
    32   18   19 1
    33   18   43 1
    34   18   44 1
    35   19   24 1
    36   19   20 1
    37   19   61 1
    38   20   21 1
    39   20   45 1
    40   20   46 1
    41   21   22 1
    42   21   47 1
    43   21   48 1
    44   22   23 1
    45   22   25 1
    46   22   49 1
    47   23   24 1
    48   23   50 1
    49   23   51 1
    50   24   52 1
    51   24   53 1
    52   25   26 1
    53   25   54 1
    54   25   55 1
    55   26   31 ar
    56   26   27 ar
    57   27   28 ar
    58   27   56 1
    59   28   29 ar
    60   28   57 1
    61   29   30 ar
    62   29   58 1
    63   30   31 ar
    64   31   59 1
    65   32   60 1
@<TRIPOS>MOLECULE
CHEMBL1082501__1
   61    65     0     0     0
SMALL
USER_CHARGES

@<TRIPOS>ATOM
      1 C1         -0.0280    1.3710   -0.4962 C.ar      1 <0>        -0.1469
      2 C2          1.1582    2.0846   -0.5730 C.ar      1 <0>        -0.0826
      3 C3          2.3711    1.4299   -0.5724 C.ar      1 <0>        -0.1379
      4 C4          2.4131    0.0412   -0.4948 C.ar      1 <0>         0.1338
      5 C5          1.2120   -0.6794   -0.4171 C.ar      1 <0>        -0.0922
      6 C6         -0.0068   -0.0049   -0.4182 C.ar      1 <0>        -0.0607
      7 C7          1.5832   -2.1042   -0.3475 C.ar      1 <0>        -0.1299
      8 C8          2.9839   -2.1536   -0.3875 C.ar      1 <0>         0.1819
      9 N1          3.4638   -0.8591   -0.4757 N.pl3     1 <0>        -0.6121
     10 H1          4.4021   -0.6172   -0.5184 H         1 <0>         0.4227
     11 C9          3.6250   -3.3880   -0.3375 C.ar      1 <0>        -0.1710
     12 C10         2.8865   -4.5490   -0.2498 C.ar      1 <0>        -0.0442
     13 C11         1.5026   -4.5036   -0.2104 C.ar      1 <0>        -0.2455
     14 C12         0.8448   -3.2868   -0.2584 C.ar      1 <0>         0.1789
     15 O1         -0.5124   -3.2426   -0.2195 O.3       1 <0>        -0.2957
     16 C13        -1.1998   -4.4921   -0.1281 C.3       1 <0>         0.0287
     17 C14        -2.7090   -4.2428   -0.0961 C.3       1 <0>         0.0860
     18 C15        -3.4479   -5.5823   -0.1242 C.3       1 <0>        -0.0434
     19 N2         -4.8971   -5.3425   -0.1086 N.4       1 <0>        -0.3771
     20 C16        -5.6021   -6.6235    0.0199 C.3       1 <0>        -0.0062
     21 C17        -7.1085   -6.3734    0.1181 C.3       1 <0>        -0.1424
     22 C18        -7.5841   -5.6517   -1.1461 C.3       1 <0>        -0.0958
     23 C19        -6.7896   -4.3528   -1.3100 C.3       1 <0>        -0.1446
     24 C20        -5.2950   -4.6778   -1.3553 C.3       1 <0>        -0.0121
     25 C21        -9.0741   -5.3276   -1.0203 C.3       1 <0>        -0.0697
     26 C22        -9.5687   -4.7287   -2.3118 C.ar      1 <0>        -0.1485
     27 C23        -9.5222   -3.3575   -2.5131 C.ar      1 <0>        -0.0758
     28 C24        -9.9881   -2.8511   -3.7165 C.ar      1 <0>        -0.1678
     29 C25       -10.4801   -3.7236   -4.6690 C.ar      1 <0>         0.1038
     30 N3        -10.5094   -5.0223   -4.4430 N.ar      1 <0>        -0.4789
     31 C26       -10.0690   -5.5396   -3.3125 C.ar      1 <0>         0.1044
     32 O2         -3.0498   -3.5358    1.0980 O.3       1 <0>        -0.5423
     33 H2         -0.9721    1.8955   -0.4930 H         1 <0>         0.1273
     34 H3          1.1316    3.1625   -0.6342 H         1 <0>         0.1320
     35 H4          3.2894    1.9951   -0.6326 H         1 <0>         0.1271
     36 H5         -0.9323   -0.5584   -0.3584 H         1 <0>         0.1249
     37 H6          4.7035   -3.4366   -0.3677 H         1 <0>         0.1306
     38 H7          3.3917   -5.5028   -0.2117 H         1 <0>         0.1353
     39 H8          0.9354   -5.4201   -0.1420 H         1 <0>         0.1278
     40 H9         -0.9515   -5.1075   -0.9929 H         1 <0>         0.0825
     41 H10        -0.8972   -5.0075    0.7834 H         1 <0>         0.0783
     42 H11        -2.9979   -3.6503   -0.9642 H         1 <0>         0.1337
     43 H12        -3.1794   -6.1265   -1.0296 H         1 <0>         0.1441
     44 H13        -3.1675   -6.1703    0.7498 H         1 <0>         0.1393
     45 H14        -5.3931   -7.2419   -0.8531 H         1 <0>         0.1298
     46 H15        -5.2603   -7.1374    0.9183 H         1 <0>         0.1318
     47 H16        -7.6303   -7.3258    0.2116 H         1 <0>         0.1160
     48 H17        -7.3187   -5.7552    0.9909 H         1 <0>         0.0911
     49 H18        -7.4209   -6.2907   -2.0139 H         1 <0>         0.0921
     50 H19        -7.0834   -3.8609   -2.2373 H         1 <0>         0.1131
     51 H20        -6.9931   -3.6927   -0.4668 H         1 <0>         0.0914
     52 H21        -4.7264   -3.7553   -1.4722 H         1 <0>         0.1320
     53 H22        -5.0925   -5.3377   -2.1990 H         1 <0>         0.1295
     54 H23        -9.6282   -6.2419   -0.8081 H         1 <0>         0.0879
     55 H24        -9.2238   -4.6154   -0.2088 H         1 <0>         0.0818
     56 H25        -9.1325   -2.6997   -1.7503 H         1 <0>         0.1328
     57 H26        -9.9673   -1.7883   -3.9073 H         1 <0>         0.1391
     58 H27       -10.8449   -3.3371   -5.6092 H         1 <0>         0.1598
     59 H28       -10.1042   -6.6090   -3.1655 H         1 <0>         0.1538
     60 H29        -2.8208   -4.0050    1.9119 H         1 <0>         0.3900
     61 H30        -5.1309   -4.7522    0.6756 H         1 <0>         0.4279
@<TRIPOS>BOND
     1    1    6 ar
     2    1    2 ar
     3    1   33 1
     4    2    3 ar
     5    2   34 1
     6    3    4 ar
     7    3   35 1
     8    4    9 1
     9    4    5 ar
    10    5    6 ar
    11    5    7 1
    12    6   36 1
    13    7   14 ar
    14    7    8 ar
    15    8    9 1
    16    8   11 ar
    17    9   10 1
    18   11   12 ar
    19   11   37 1
    20   12   13 ar
    21   12   38 1
    22   13   14 ar
    23   13   39 1
    24   14   15 1
    25   15   16 1
    26   16   17 1
    27   16   40 1
    28   16   41 1
    29   17   18 1
    30   17   32 1
    31   17   42 1
    32   18   19 1
    33   18   43 1
    34   18   44 1
    35   19   24 1
    36   19   20 1
    37   19   61 1
    38   20   21 1
    39   20   45 1
    40   20   46 1
    41   21   22 1
    42   21   47 1
    43   21   48 1
    44   22   23 1
    45   22   25 1
    46   22   49 1
    47   23   24 1
    48   23   50 1
    49   23   51 1
    50   24   52 1
    51   24   53 1
    52   25   26 1
    53   25   54 1
    54   25   55 1
    55   26   31 ar
    56   26   27 ar
    57   27   28 ar
    58   27   56 1
    59   28   29 ar
    60   28   57 1
    61   29   30 ar
    62   29   58 1
    63   30   31 ar
    64   31   59 1
    65   32   60 1
@<TRIPOS>MOLECULE
CHEMBL498531
   58    61     0     0     0
SMALL
USER_CHARGES

@<TRIPOS>ATOM
      1 C1          0.4821    1.3769    0.2160 C.ar      1 <0>        -0.0988
      2 C2          1.8016    1.7902    0.2091 C.ar      1 <0>        -0.1012
      3 C3          2.8187    0.8560    0.1517 C.ar      1 <0>        -0.1319
      4 C4          2.5173   -0.4921    0.1009 C.ar      1 <0>        -0.0981
      5 C5          1.1974   -0.9062    0.1078 C.ar      1 <0>        -0.0255
      6 C6          0.1796    0.0294    0.1656 C.ar      1 <0>        -0.0903
      7 Cl1         0.8182   -2.5991    0.0434 Cl        1 <0>        -0.0392
      8 C7          4.2565    1.3074    0.1442 C.3       1 <0>         0.1415
      9 H1          4.3326    2.2860    0.6181 H         1 <0>         0.1332
     10 C8          4.7544    1.3998   -1.2996 C.3       1 <0>        -0.0512
     11 N1          6.1560    1.8397   -1.3069 N.4       1 <0>        -0.5017
     12 C9          6.5956    2.0510   -2.6926 C.3       1 <0>         0.0311
     13 H2          5.9049    2.7339   -3.1873 H         1 <0>         0.1401
     14 C10         7.9827    2.6625   -2.6874 C.3       1 <0>        -0.1390
     15 C11         8.4722    3.1178   -4.0480 C.3       1 <0>        -0.1094
     16 C12         8.7213    1.9208   -4.9687 C.3       1 <0>        -0.0807
     17 C13         7.4143    1.5517   -5.6395 C.ar      1 <0>        -0.1176
     18 C14         7.2499    1.7976   -6.9920 C.ar      1 <0>        -0.0746
     19 C15         6.0594    1.4632   -7.6089 C.ar      1 <0>        -0.1363
     20 C16         5.0355    0.8838   -6.8728 C.ar      1 <0>         0.1390
     21 C17         5.2089    0.6403   -5.5173 C.ar      1 <0>        -0.1831
     22 C18         6.4043    0.9794   -4.9102 C.ar      1 <0>        -0.0637
     23 C19         6.5928    0.7103   -3.4312 C.3       1 <0>        -0.0969
     24 O1          3.8641    0.5555   -7.4784 O.3       1 <0>        -0.2509
     25 C20         2.8564    0.0779   -6.7018 C.ar      1 <0>         0.0507
     26 C21         2.0892    0.9536   -5.9442 C.ar      1 <0>        -0.1423
     27 C22         1.0622    0.4741   -5.1524 C.ar      1 <0>        -0.1270
     28 C23         0.7922   -0.8783   -5.1089 C.ar      1 <0>        -0.0781
     29 C24         1.5579   -1.7673   -5.8671 C.ar      1 <0>        -0.1133
     30 C25         2.5913   -1.2805   -6.6708 C.ar      1 <0>        -0.0827
     31 C26         1.2725   -3.2144   -5.8234 C.2       1 <0>         0.5169
     32 O2          0.3642   -3.6375   -5.1224 O.co2     1 <0>        -0.6764
     33 O3          1.9443   -3.9905   -6.4881 O.co2     1 <0>        -0.6783
     34 O4          5.0550    0.3660    0.8641 O.3       1 <0>        -0.5492
     35 H3         -0.3121    2.1070    0.2653 H         1 <0>         0.1400
     36 H4          2.0375    2.8434    0.2480 H         1 <0>         0.1317
     37 H5          3.3121   -1.2219    0.0554 H         1 <0>         0.1324
     38 H6         -0.8510   -0.2933    0.1710 H         1 <0>         0.1427
     39 H7          4.6783    0.4212   -1.7735 H         1 <0>         0.1410
     40 H8          4.1453    2.1178   -1.8487 H         1 <0>         0.1471
     41 H9          6.2401    2.7033   -0.7920 H         1 <0>         0.4271
     42 H10         7.9795    3.5212   -2.0160 H         1 <0>         0.0833
     43 H11         8.6841    1.9253   -2.2966 H         1 <0>         0.0865
     44 H12         7.7221    3.7670   -4.4996 H         1 <0>         0.0757
     45 H13         9.4008    3.6754   -3.9263 H         1 <0>         0.0864
     46 H14         9.4589    2.1879   -5.7255 H         1 <0>         0.0828
     47 H15         9.0833    1.0764   -4.3821 H         1 <0>         0.0764
     48 H16         8.0483    2.2489   -7.5623 H         1 <0>         0.1347
     49 H17         5.9260    1.6525   -8.6637 H         1 <0>         0.1369
     50 H18         4.4149    0.1899   -4.9402 H         1 <0>         0.1334
     51 H19         7.5424    0.2004   -3.2684 H         1 <0>         0.1047
     52 H20         5.7738    0.0916   -3.0644 H         1 <0>         0.0927
     53 H21         2.2960    2.0132   -5.9734 H         1 <0>         0.1182
     54 H22         0.4695    1.1604   -4.5658 H         1 <0>         0.1215
     55 H23        -0.0104   -1.2493   -4.4887 H         1 <0>         0.1333
     56 H24         3.1842   -1.9620   -7.2628 H         1 <0>         0.1364
     57 H25         5.0348   -0.5286    0.4975 H         1 <0>         0.3906
     58 H26         6.7326    1.1332   -0.8752 H         1 <0>         0.4294
@<TRIPOS>BOND
     1    1    6 ar
     2    1    2 ar
     3    1   35 1
     4    2    3 ar
     5    2   36 1
     6    3    4 ar
     7    3    8 1
     8    4    5 ar
     9    4   37 1
    10    5    6 ar
    11    5    7 1
    12    6   38 1
    13    8    9 1
    14    8   10 1
    15    8   34 1
    16   10   11 1
    17   10   39 1
    18   10   40 1
    19   11   12 1
    20   11   41 1
    21   11   58 1
    22   12   13 1
    23   12   23 1
    24   12   14 1
    25   14   15 1
    26   14   42 1
    27   14   43 1
    28   15   16 1
    29   15   44 1
    30   15   45 1
    31   16   17 1
    32   16   46 1
    33   16   47 1
    34   17   22 ar
    35   17   18 ar
    36   18   19 ar
    37   18   48 1
    38   19   20 ar
    39   19   49 1
    40   20   21 ar
    41   20   24 1
    42   21   22 ar
    43   21   50 1
    44   22   23 1
    45   23   51 1
    46   23   52 1
    47   24   25 1
    48   25   30 ar
    49   25   26 ar
    50   26   27 ar
    51   26   53 1
    52   27   28 ar
    53   27   54 1
    54   28   29 ar
    55   28   55 1
    56   29   30 ar
    57   29   31 1
    58   30   56 1
    59   31   32 2
    60   31   33 1
    61   34   57 1
@<TRIPOS>MOLECULE
CHEMBL1203891
   57    60     0     0     0
SMALL
USER_CHARGES

@<TRIPOS>ATOM
      1 C1         -0.0775    1.3488   -0.3035 C.ar      1 <0>        -0.0823
      2 C2          1.1000    2.0693   -0.3684 C.ar      1 <0>        -0.1507
      3 C3          2.3170    1.4093   -0.3452 C.ar      1 <0>         0.1048
      4 C4          2.3526    0.0280   -0.2568 C.ar      1 <0>        -0.1505
      5 C5          1.1738   -0.6904   -0.1920 C.ar      1 <0>        -0.0803
      6 C6         -0.0407   -0.0303   -0.2152 C.ar      1 <0>        -0.0994
      7 C7         -1.3255   -0.8148   -0.1444 C.3       1 <0>         0.0033
      8 C8         -1.3532   -1.6829    1.1314 C.3       1 <0>        -0.1083
      9 C9         -2.1076   -2.9435    0.6582 C.3       1 <0>         0.1295
     10 C10        -1.8549   -3.0203   -0.8323 C.ar      1 <0>        -0.0798
     11 C11        -1.4053   -1.7968   -1.2937 C.ar      1 <0>        -0.0752
     12 C12        -1.1082   -1.6324   -2.6361 C.ar      1 <0>        -0.0673
     13 C13        -1.2594   -2.6858   -3.5163 C.ar      1 <0>        -0.1369
     14 C14        -1.7093   -3.9112   -3.0554 C.ar      1 <0>         0.1041
     15 C15        -2.0058   -4.0766   -1.7140 C.ar      1 <0>        -0.1424
     16 F1         -1.8587   -4.9437   -3.9138 F         1 <0>        -0.1329
     17 N1         -3.5458   -2.8070    0.9249 N.3       1 <0>        -0.5267
     18 C16        -3.8111   -2.7577    2.3697 C.3       1 <0>         0.0211
     19 C17        -5.3099   -2.5557    2.6033 C.3       1 <0>        -0.0008
     20 N2         -6.0549   -3.6624    1.9888 N.4       1 <0>        -0.3870
     21 C18        -5.7992   -3.6836    0.5425 C.3       1 <0>        -0.0052
     22 C19        -4.3045   -3.8950    0.2917 C.3       1 <0>         0.0186
     23 C20        -7.4923   -3.4776    2.2289 C.3       1 <0>        -0.0071
     24 C21        -8.2582   -4.6913    1.6984 C.3       1 <0>        -0.1463
     25 C22        -9.7553   -4.4988    1.9485 C.3       1 <0>        -0.1200
     26 C23       -10.5212   -5.7124    1.4180 C.3       1 <0>         0.0744
     27 O1        -11.9194   -5.5327    1.6516 O.3       1 <0>        -0.5732
     28 F2          3.4687    2.1126   -0.4091 F         1 <0>        -0.1352
     29 H1         -1.0268    1.8637   -0.3171 H         1 <0>         0.1332
     30 H2          1.0710    3.1467   -0.4377 H         1 <0>         0.1387
     31 H3          3.3013   -0.4879   -0.2390 H         1 <0>         0.1377
     32 H4          1.2013   -1.7678   -0.1234 H         1 <0>         0.1291
     33 H5         -2.1814   -0.1401   -0.1632 H         1 <0>         0.1035
     34 H6         -0.3419   -1.9339    1.4513 H         1 <0>         0.0913
     35 H7         -1.8999   -1.1811    1.9297 H         1 <0>         0.0898
     36 H8         -1.7125   -3.8296    1.1550 H         1 <0>         0.0690
     37 H9         -0.7572   -0.6766   -2.9963 H         1 <0>         0.1356
     38 H10        -1.0274   -2.5537   -4.5627 H         1 <0>         0.1434
     39 H11        -2.3568   -5.0325   -1.3541 H         1 <0>         0.1311
     40 H12        -3.4942   -3.6935    2.8298 H         1 <0>         0.0631
     41 H13        -3.2591   -1.9288    2.8127 H         1 <0>         0.1282
     42 H14        -5.5108   -2.5330    3.6744 H         1 <0>         0.1371
     43 H15        -5.6238   -1.6131    2.1548 H         1 <0>         0.1389
     44 H16        -6.3628   -4.4972    0.0858 H         1 <0>         0.1361
     45 H17        -6.1105   -2.7353    0.1046 H         1 <0>         0.1389
     46 H18        -4.1123   -3.8959   -0.7812 H         1 <0>         0.1279
     47 H19        -3.9956   -4.8496    0.7177 H         1 <0>         0.0617
     48 H20        -7.6716   -3.3742    3.2991 H         1 <0>         0.1335
     49 H21        -7.8340   -2.5792    1.7148 H         1 <0>         0.1329
     50 H22        -8.0789   -4.7947    0.6282 H         1 <0>         0.0889
     51 H23        -7.9165   -5.5896    2.2125 H         1 <0>         0.0886
     52 H24        -9.9346   -4.3954    3.0187 H         1 <0>         0.0821
     53 H25       -10.0970   -3.6004    1.4344 H         1 <0>         0.0822
     54 H26       -10.3419   -5.8158    0.3479 H         1 <0>         0.0487
     55 H27       -10.1795   -6.6108    1.9321 H         1 <0>         0.0487
     56 H28       -12.4677   -6.2657    1.3400 H         1 <0>         0.3914
     57 H29        -5.7559   -4.5359    2.3959 H         1 <0>         0.4204
@<TRIPOS>BOND
     1    1    6 ar
     2    1    2 ar
     3    1   29 1
     4    2    3 ar
     5    2   30 1
     6    3    4 ar
     7    3   28 1
     8    4    5 ar
     9    4   31 1
    10    5    6 ar
    11    5   32 1
    12    6    7 1
    13    7   11 1
    14    7    8 1
    15    7   33 1
    16    8    9 1
    17    8   34 1
    18    8   35 1
    19    9   10 1
    20    9   17 1
    21    9   36 1
    22   10   15 ar
    23   10   11 ar
    24   11   12 ar
    25   12   13 ar
    26   12   37 1
    27   13   14 ar
    28   13   38 1
    29   14   15 ar
    30   14   16 1
    31   15   39 1
    32   17   22 1
    33   17   18 1
    34   18   19 1
    35   18   40 1
    36   18   41 1
    37   19   20 1
    38   19   42 1
    39   19   43 1
    40   20   21 1
    41   20   23 1
    42   20   57 1
    43   21   22 1
    44   21   44 1
    45   21   45 1
    46   22   46 1
    47   22   47 1
    48   23   24 1
    49   23   48 1
    50   23   49 1
    51   24   25 1
    52   24   50 1
    53   24   51 1
    54   25   26 1
    55   25   52 1
    56   25   53 1
    57   26   27 1
    58   26   54 1
    59   26   55 1
    60   27   56 1
@<TRIPOS>MOLECULE
CHEMBL1203891__1
   57    60     0     0     0
SMALL
USER_CHARGES

@<TRIPOS>ATOM
      1 C1         -4.4528   -2.1065   -3.4975 C.ar      1 <0>        -0.0808
      2 C2         -5.1383   -2.6678   -4.5581 C.ar      1 <0>        -0.1469
      3 C3         -5.5767   -3.9790   -4.4823 C.ar      1 <0>         0.1046
      4 C4         -5.3275   -4.7263   -3.3436 C.ar      1 <0>        -0.1527
      5 C5         -4.6418   -4.1629   -2.2843 C.ar      1 <0>        -0.0846
      6 C6         -4.2046   -2.8537   -2.3612 C.ar      1 <0>        -0.0939
      7 C7         -3.4568   -2.2405   -1.2054 C.3       1 <0>        -0.0020
      8 C8         -2.2009   -3.0752   -0.8768 C.3       1 <0>        -0.1496
      9 C9         -2.1076   -2.9435    0.6582 C.3       1 <0>         0.1313
     10 C10        -3.5263   -2.6893    1.1209 C.ar      1 <0>        -0.0772
     11 C11        -4.3019   -2.2852    0.0498 C.ar      1 <0>        -0.0938
     12 C12        -5.6426   -1.9952    0.2392 C.ar      1 <0>        -0.0667
     13 C13        -6.2083   -2.1078    1.4940 C.ar      1 <0>        -0.1400
     14 C14        -5.4328   -2.5124    2.5670 C.ar      1 <0>         0.1029
     15 C15        -4.0931   -2.8030    2.3786 C.ar      1 <0>        -0.1254
     16 F1         -5.9829   -2.6232    3.7959 F         1 <0>        -0.1328
     17 N1         -1.5949   -4.1882    1.2464 N.3       1 <0>        -0.5268
     18 C16        -0.2106   -4.4401    0.8220 C.3       1 <0>         0.0236
     19 C17         0.3050   -5.7105    1.5018 C.3       1 <0>        -0.0017
     20 N2         -0.5522   -6.8451    1.1341 N.4       1 <0>        -0.3868
     21 C18        -1.9262   -6.5897    1.5862 C.3       1 <0>        -0.0063
     22 C19        -2.4603   -5.3266    0.9071 C.3       1 <0>         0.0169
     23 C20        -0.0463   -8.0677    1.7724 C.3       1 <0>        -0.0072
     24 C21        -0.8625   -9.2692    1.2916 C.3       1 <0>        -0.1463
     25 C22        -0.3356  -10.5425    1.9564 C.3       1 <0>        -0.1200
     26 C23        -1.1517  -11.7441    1.4756 C.3       1 <0>         0.0744
     27 O1         -0.6596  -12.9333    2.0966 O.3       1 <0>        -0.5731
     28 F2         -6.2474   -4.5286   -5.5183 F         1 <0>        -0.1345
     29 H1         -4.1069   -1.0852   -3.5583 H         1 <0>         0.1361
     30 H2         -5.3324   -2.0838   -5.4456 H         1 <0>         0.1406
     31 H3         -5.6693   -5.7491   -3.2832 H         1 <0>         0.1358
     32 H4         -4.4476   -4.7456   -1.3959 H         1 <0>         0.1225
     33 H5         -3.1793   -1.2124   -1.4380 H         1 <0>         0.1054
     34 H6         -2.3403   -4.1162   -1.1686 H         1 <0>         0.0811
     35 H7         -1.3182   -2.6522   -1.3563 H         1 <0>         0.0907
     36 H8         -1.4659   -2.1046    0.9275 H         1 <0>         0.1179
     37 H9         -6.2481   -1.6795   -0.5975 H         1 <0>         0.1341
     38 H10        -7.2541   -1.8801    1.6381 H         1 <0>         0.1426
     39 H11        -3.4878   -3.1187    3.2154 H         1 <0>         0.1384
     40 H12        -0.1795   -4.5684   -0.2600 H         1 <0>         0.0647
     41 H13         0.4166   -3.5952    1.1065 H         1 <0>         0.1265
     42 H14         1.3269   -5.9070    1.1773 H         1 <0>         0.1369
     43 H15         0.2866   -5.5768    2.5834 H         1 <0>         0.1389
     44 H16        -2.5585   -7.4380    1.3243 H         1 <0>         0.1359
     45 H17        -1.9331   -6.4515    2.6673 H         1 <0>         0.1391
     46 H18        -3.4746   -5.1285    1.2537 H         1 <0>         0.1251
     47 H19        -2.4663   -5.4695   -0.1735 H         1 <0>         0.0659
     48 H20         1.0010   -8.2099    1.5061 H         1 <0>         0.1336
     49 H21        -0.1369   -7.9766    2.8548 H         1 <0>         0.1331
     50 H22        -1.9098   -9.1270    1.5579 H         1 <0>         0.0889
     51 H23        -0.7719   -9.3603    0.2092 H         1 <0>         0.0886
     52 H24         0.7118  -10.6847    1.6901 H         1 <0>         0.0822
     53 H25        -0.4261  -10.4514    3.0388 H         1 <0>         0.0823
     54 H26        -2.1991  -11.6018    1.7419 H         1 <0>         0.0486
     55 H27        -1.0611  -11.8351    0.3932 H         1 <0>         0.0487
     56 H28        -1.1315  -13.7365    1.8373 H         1 <0>         0.3914
     57 H29        -0.5443   -6.9615    0.1318 H         1 <0>         0.4201
@<TRIPOS>BOND
     1    1    6 ar
     2    1    2 ar
     3    1   29 1
     4    2    3 ar
     5    2   30 1
     6    3    4 ar
     7    3   28 1
     8    4    5 ar
     9    4   31 1
    10    5    6 ar
    11    5   32 1
    12    6    7 1
    13    7   11 1
    14    7    8 1
    15    7   33 1
    16    8    9 1
    17    8   34 1
    18    8   35 1
    19    9   10 1
    20    9   17 1
    21    9   36 1
    22   10   15 ar
    23   10   11 ar
    24   11   12 ar
    25   12   13 ar
    26   12   37 1
    27   13   14 ar
    28   13   38 1
    29   14   15 ar
    30   14   16 1
    31   15   39 1
    32   17   22 1
    33   17   18 1
    34   18   19 1
    35   18   40 1
    36   18   41 1
    37   19   20 1
    38   19   42 1
    39   19   43 1
    40   20   21 1
    41   20   23 1
    42   20   57 1
    43   21   22 1
    44   21   44 1
    45   21   45 1
    46   22   46 1
    47   22   47 1
    48   23   24 1
    49   23   48 1
    50   23   49 1
    51   24   25 1
    52   24   50 1
    53   24   51 1
    54   25   26 1
    55   25   52 1
    56   25   53 1
    57   26   27 1
    58   26   54 1
    59   26   55 1
    60   27   56 1
@<TRIPOS>MOLECULE
CHEMBL1203891__2
   57    60     0     0     0
SMALL
USER_CHARGES

@<TRIPOS>ATOM
      1 C1         -5.9445   -0.1653   -1.7245 C.ar      1 <0>        -0.0808
      2 C2         -6.9222    0.1230   -2.6577 C.ar      1 <0>        -0.1469
      3 C3         -6.8144   -0.3692   -3.9473 C.ar      1 <0>         0.1048
      4 C4         -5.7268   -1.1499   -4.3005 C.ar      1 <0>        -0.1526
      5 C5         -4.7503   -1.4370   -3.3656 C.ar      1 <0>        -0.0845
      6 C6         -4.8590   -0.9449   -2.0783 C.ar      1 <0>        -0.0941
      7 C7         -3.7935   -1.2586   -1.0598 C.3       1 <0>        -0.0021
      8 C8         -3.6341   -2.7860   -0.9046 C.3       1 <0>        -0.1491
      9 C9         -2.1201   -2.9365   -0.6452 C.3       1 <0>         0.1314
     10 C10        -1.4836   -1.7309   -1.3031 C.ar      1 <0>        -0.0777
     11 C11        -2.4454   -0.7665   -1.5414 C.ar      1 <0>        -0.0937
     12 C12        -2.0891    0.4302   -2.1400 C.ar      1 <0>        -0.0666
     13 C13        -0.7765    0.6643   -2.5002 C.ar      1 <0>        -0.1399
     14 C14         0.1872   -0.3006   -2.2621 C.ar      1 <0>         0.1031
     15 C15        -0.1680   -1.4967   -1.6639 C.ar      1 <0>        -0.1261
     16 F1          1.4720   -0.0750   -2.6137 F         1 <0>        -0.1326
     17 N1         -1.6189   -4.1747   -1.2564 N.3       1 <0>        -0.5267
     18 C16        -1.8306   -4.1674   -2.7108 C.3       1 <0>         0.0163
     19 C17        -1.2428   -5.4444   -3.3153 C.3       1 <0>        -0.0017
     20 N2         -1.8941   -6.6157   -2.7143 N.4       1 <0>        -0.3866
     21 C18        -1.6531   -6.6224   -1.2654 C.3       1 <0>        -0.0066
     22 C19        -2.2444   -5.3552   -0.6438 C.3       1 <0>         0.0240
     23 C20        -1.3423   -7.8408   -3.3079 C.3       1 <0>        -0.0075
     24 C21        -2.1057   -9.0547   -2.7744 C.3       1 <0>        -0.1457
     25 C22        -1.5309  -10.3307   -3.3927 C.3       1 <0>        -0.1203
     26 C23        -2.2944  -11.5446   -2.8592 C.3       1 <0>         0.0746
     27 O1         -1.7576  -12.7364   -3.4367 O.3       1 <0>        -0.5732
     28 F2         -7.7698   -0.0883   -4.8602 F         1 <0>        -0.1344
     29 H1         -6.0261    0.2222   -0.7198 H         1 <0>         0.1361
     30 H2         -7.7703    0.7318   -2.3810 H         1 <0>         0.1406
     31 H3         -5.6418   -1.5347   -5.3060 H         1 <0>         0.1360
     32 H4         -3.9021   -2.0462   -3.6408 H         1 <0>         0.1224
     33 H5         -4.0419   -0.8035   -0.1011 H         1 <0>         0.1054
     34 H6         -4.2110   -3.1513   -0.0550 H         1 <0>         0.0908
     35 H7         -3.9233   -3.3008   -1.8209 H         1 <0>         0.0806
     36 H8         -1.9178   -2.9337    0.4259 H         1 <0>         0.1181
     37 H9         -2.8405    1.1833   -2.3263 H         1 <0>         0.1342
     38 H10        -0.5023    1.5987   -2.9672 H         1 <0>         0.1427
     39 H11         0.5835   -2.2497   -1.4780 H         1 <0>         0.1385
     40 H12        -2.8990   -4.1231   -2.9226 H         1 <0>         0.0655
     41 H13        -1.3370   -3.2984   -3.1458 H         1 <0>         0.1259
     42 H14        -1.4114   -5.4476   -4.3922 H         1 <0>         0.1360
     43 H15        -0.1719   -5.4815   -3.1151 H         1 <0>         0.1390
     44 H16        -2.1259   -7.4990   -0.8225 H         1 <0>         0.1368
     45 H17        -0.5802   -6.6535   -1.0757 H         1 <0>         0.1392
     46 H18        -2.0526   -5.3528    0.4292 H         1 <0>         0.1260
     47 H19        -3.3195   -5.3305   -0.8215 H         1 <0>         0.0646
     48 H20        -1.4427   -7.7963   -4.3923 H         1 <0>         0.1332
     49 H21        -0.2884   -7.9297   -3.0439 H         1 <0>         0.1332
     50 H22        -2.0053   -9.0992   -1.6900 H         1 <0>         0.0892
     51 H23        -3.1595   -8.9659   -3.0384 H         1 <0>         0.0885
     52 H24        -1.6314  -10.2862   -4.4771 H         1 <0>         0.0821
     53 H25        -0.4771  -10.4196   -3.1287 H         1 <0>         0.0823
     54 H26        -2.1940  -11.5891   -1.7748 H         1 <0>         0.0487
     55 H27        -3.3482  -11.4558   -3.1232 H         1 <0>         0.0487
     56 H28        -2.1947  -13.5473   -3.1427 H         1 <0>         0.3914
     57 H29        -2.8869   -6.5751   -2.8897 H         1 <0>         0.4200
@<TRIPOS>BOND
     1    1    6 ar
     2    1    2 ar
     3    1   29 1
     4    2    3 ar
     5    2   30 1
     6    3    4 ar
     7    3   28 1
     8    4    5 ar
     9    4   31 1
    10    5    6 ar
    11    5   32 1
    12    6    7 1
    13    7   11 1
    14    7    8 1
    15    7   33 1
    16    8    9 1
    17    8   34 1
    18    8   35 1
    19    9   10 1
    20    9   17 1
    21    9   36 1
    22   10   15 ar
    23   10   11 ar
    24   11   12 ar
    25   12   13 ar
    26   12   37 1
    27   13   14 ar
    28   13   38 1
    29   14   15 ar
    30   14   16 1
    31   15   39 1
    32   17   22 1
    33   17   18 1
    34   18   19 1
    35   18   40 1
    36   18   41 1
    37   19   20 1
    38   19   42 1
    39   19   43 1
    40   20   21 1
    41   20   23 1
    42   20   57 1
    43   21   22 1
    44   21   44 1
    45   21   45 1
    46   22   46 1
    47   22   47 1
    48   23   24 1
    49   23   48 1
    50   23   49 1
    51   24   25 1
    52   24   50 1
    53   24   51 1
    54   25   26 1
    55   25   52 1
    56   25   53 1
    57   26   27 1
    58   26   54 1
    59   26   55 1
    60   27   56 1
@<TRIPOS>MOLECULE
CHEMBL1203891__3
   57    60     0     0     0
SMALL
USER_CHARGES

@<TRIPOS>ATOM
      1 C1          0.2643   -3.8553   -4.7611 C.ar      1 <0>        -0.0823
      2 C2          1.4278   -4.3427   -5.3256 C.ar      1 <0>        -0.1507
      3 C3          2.5506   -4.5354   -4.5387 C.ar      1 <0>         0.1048
      4 C4          2.5063   -4.2395   -3.1868 C.ar      1 <0>        -0.1505
      5 C5          1.3417   -3.7522   -2.6245 C.ar      1 <0>        -0.0804
      6 C6          0.2213   -3.5601   -3.4112 C.ar      1 <0>        -0.0994
      7 C7         -1.0480   -3.0286   -2.7968 C.3       1 <0>         0.0034
      8 C8         -1.5079   -3.9434   -1.6419 C.3       1 <0>        -0.1078
      9 C9         -2.1201   -2.9365   -0.6452 C.3       1 <0>         0.1296
     10 C10        -1.4136   -1.6265   -0.9211 C.ar      1 <0>        -0.0804
     11 C11        -0.7974   -1.6794   -2.1579 C.ar      1 <0>        -0.0753
     12 C12        -0.0870   -0.5852   -2.6222 C.ar      1 <0>        -0.0673
     13 C13         0.0086    0.5589   -1.8547 C.ar      1 <0>        -0.1369
     14 C14        -0.6079    0.6129   -0.6164 C.ar      1 <0>         0.1042
     15 C15        -1.3180   -0.4799   -0.1516 C.ar      1 <0>        -0.1424
     16 F1         -0.5159    1.7304    0.1372 F         1 <0>        -0.1327
     17 N1         -3.5631   -2.7973   -0.8829 N.3       1 <0>        -0.5266
     18 C16        -4.1177   -1.6744   -0.1137 C.3       1 <0>         0.0180
     19 C17        -5.6067   -1.5265   -0.4342 C.3       1 <0>        -0.0005
     20 N2         -6.3075   -2.7710   -0.0911 N.4       1 <0>        -0.3870
     21 C18        -5.7593   -3.8786   -0.8850 C.3       1 <0>        -0.0056
     22 C19        -4.2716   -4.0460   -0.5682 C.3       1 <0>         0.0219
     23 C20        -7.7397   -2.6223   -0.3821 C.3       1 <0>        -0.0074
     24 C21        -8.4883   -3.8703    0.0901 C.3       1 <0>        -0.1457
     25 C22        -9.9799   -3.7154   -0.2130 C.3       1 <0>        -0.1203
     26 C23       -10.7285   -4.9635    0.2592 C.3       1 <0>         0.0745
     27 O1        -12.1217   -4.8188   -0.0238 O.3       1 <0>        -0.5732
     28 F2          3.6883   -5.0123   -5.0894 F         1 <0>        -0.1352
     29 H1         -0.6102   -3.7007   -5.3756 H         1 <0>         0.1332
     30 H2          1.4611   -4.5735   -6.3801 H         1 <0>         0.1387
     31 H3          3.3813   -4.3898   -2.5719 H         1 <0>         0.1377
     32 H4          1.3068   -3.5216   -1.5700 H         1 <0>         0.1291
     33 H5         -1.8292   -2.9498   -3.5528 H         1 <0>         0.1035
     34 H6         -2.2596   -4.6537   -1.9861 H         1 <0>         0.0896
     35 H7         -0.6587   -4.4618   -1.1966 H         1 <0>         0.0911
     36 H8         -1.9341   -3.2580    0.3796 H         1 <0>         0.0691
     37 H9          0.3944   -0.6269   -3.5881 H         1 <0>         0.1356
     38 H10         0.5638    1.4102   -2.2199 H         1 <0>         0.1435
     39 H11        -1.7991   -0.4382    0.8144 H         1 <0>         0.1313
     40 H12        -3.9923   -1.8664    0.9519 H         1 <0>         0.0619
     41 H13        -3.5949   -0.7564   -0.3821 H         1 <0>         0.1285
     42 H14        -6.0232   -0.7032    0.1460 H         1 <0>         0.1362
     43 H15        -5.7307   -1.3210   -1.4975 H         1 <0>         0.1387
     44 H16        -6.2889   -4.7989   -0.6389 H         1 <0>         0.1369
     45 H17        -5.8826   -3.6610   -1.9459 H         1 <0>         0.1392
     46 H18        -3.8611   -4.8582   -1.1682 H         1 <0>         0.1275
     47 H19        -4.1488   -4.2771    0.4899 H         1 <0>         0.0629
     48 H20        -8.1274   -1.7471    0.1393 H         1 <0>         0.1332
     49 H21        -7.8813   -2.4980   -1.4557 H         1 <0>         0.1330
     50 H22        -8.1006   -4.7455   -0.4312 H         1 <0>         0.0891
     51 H23        -8.3466   -3.9945    1.1637 H         1 <0>         0.0885
     52 H24       -10.3676   -2.8402    0.3084 H         1 <0>         0.0821
     53 H25       -10.1216   -3.5912   -1.2866 H         1 <0>         0.0823
     54 H26       -10.3408   -5.8387   -0.2621 H         1 <0>         0.0487
     55 H27       -10.5869   -5.0877    1.3328 H         1 <0>         0.0487
     56 H28       -12.6592   -5.5749    0.2493 H         1 <0>         0.3914
     57 H29        -6.1827   -2.9672    0.8907 H         1 <0>         0.4203
@<TRIPOS>BOND
     1    1    6 ar
     2    1    2 ar
     3    1   29 1
     4    2    3 ar
     5    2   30 1
     6    3    4 ar
     7    3   28 1
     8    4    5 ar
     9    4   31 1
    10    5    6 ar
    11    5   32 1
    12    6    7 1
    13    7   11 1
    14    7    8 1
    15    7   33 1
    16    8    9 1
    17    8   34 1
    18    8   35 1
    19    9   10 1
    20    9   17 1
    21    9   36 1
    22   10   15 ar
    23   10   11 ar
    24   11   12 ar
    25   12   13 ar
    26   12   37 1
    27   13   14 ar
    28   13   38 1
    29   14   15 ar
    30   14   16 1
    31   15   39 1
    32   17   22 1
    33   17   18 1
    34   18   19 1
    35   18   40 1
    36   18   41 1
    37   19   20 1
    38   19   42 1
    39   19   43 1
    40   20   21 1
    41   20   23 1
    42   20   57 1
    43   21   22 1
    44   21   44 1
    45   21   45 1
    46   22   46 1
    47   22   47 1
    48   23   24 1
    49   23   48 1
    50   23   49 1
    51   24   25 1
    52   24   50 1
    53   24   51 1
    54   25   26 1
    55   25   52 1
    56   25   53 1
    57   26   27 1
    58   26   54 1
    59   26   55 1
    60   27   56 1
@<TRIPOS>MOLECULE
CHEMBL516002
   53    56     0     0     0
SMALL
USER_CHARGES

@<TRIPOS>ATOM
      1 C1         -0.0168    1.3912    0.0097 C.ar      1 <0>        -0.1165
      2 C2          1.1649    2.0962    0.0022 C.ar      1 <0>        -0.0858
      3 C3          2.3855    1.4134   -0.0131 C.ar      1 <0>        -0.1112
      4 C4          2.4026    0.0149   -0.0208 C.ar      1 <0>        -0.0879
      5 C5          1.2189   -0.6869   -0.0133 C.ar      1 <0>        -0.1192
      6 C6          0.0021   -0.0041    0.0020 C.ar      1 <0>        -0.0885
      7 C7         -1.2721   -0.7619    0.0106 C.ar      1 <0>        -0.0015
      8 C8         -2.4916   -0.0857    0.0206 C.ar      1 <0>        -0.1053
      9 C9         -3.6672   -0.8021    0.0257 C.ar      1 <0>        -0.1071
     10 C10        -3.6520   -2.1925    0.0234 C.ar      1 <0>        -0.1023
     11 C11        -2.4497   -2.8660    0.0185 C.ar      1 <0>        -0.0882
     12 C12        -1.2603   -2.1529    0.0030 C.ar      1 <0>        -0.1145
     13 C13        -2.3630   -4.3700    0.0321 C.3       1 <0>        -0.0910
     14 C14        -3.6946   -4.9891   -0.3873 C.3       1 <0>         0.0253
     15 H1         -3.8766   -4.7882   -1.4430 H         1 <0>         0.1447
     16 C15        -4.8083   -4.3595    0.4577 C.3       1 <0>        -0.1359
     17 C16        -4.9793   -2.9056    0.0225 C.3       1 <0>        -0.0722
     18 N1         -3.6594   -6.4398   -0.1588 N.4       1 <0>        -0.5012
     19 C17        -2.6551   -7.0501   -1.0403 C.3       1 <0>        -0.0491
     20 C18        -2.6184   -8.5610   -0.8023 C.3       1 <0>         0.1443
     21 H2         -3.5982   -8.9868   -1.0185 H         1 <0>         0.1360
     22 C19        -1.5881   -9.1871   -1.7066 C.ar      1 <0>        -0.1983
     23 C20        -1.9605   -9.7201   -2.9318 C.ar      1 <0>        -0.0403
     24 C21        -0.9799  -10.2858   -3.7308 C.ar      1 <0>        -0.1493
     25 C22         0.3294  -10.3001   -3.2828 C.ar      1 <0>         0.1917
     26 N2          0.6467   -9.7834   -2.1109 N.ar      1 <0>        -0.4674
     27 C23        -0.2604   -9.2320   -1.3278 C.ar      1 <0>         0.1397
     28 Cl1         1.5680  -11.0062   -4.2733 Cl        1 <0>        -0.0050
     29 O1         -2.2765   -8.8205    0.5607 O.3       1 <0>        -0.5453
     30 C24         3.6522    2.1668   -0.0217 C.2       1 <0>         0.5140
     31 O2          3.6364    3.3899   -0.0154 O.co2     1 <0>        -0.6798
     32 O3          4.7193    1.5690   -0.0351 O.co2     1 <0>        -0.6818
     33 H3         -0.9595    1.9180    0.0260 H         1 <0>         0.1184
     34 H4          1.1499    3.1761    0.0078 H         1 <0>         0.1327
     35 H5          3.3442   -0.5139   -0.0331 H         1 <0>         0.1311
     36 H6          1.2317   -1.7668   -0.0196 H         1 <0>         0.1137
     37 H7         -2.5137    0.9941    0.0247 H         1 <0>         0.1332
     38 H8         -4.6117   -0.2784    0.0320 H         1 <0>         0.1262
     39 H9         -0.3184   -2.6811   -0.0105 H         1 <0>         0.1278
     40 H10        -1.5838   -4.6912   -0.6592 H         1 <0>         0.0952
     41 H11        -2.1112   -4.7063    1.0378 H         1 <0>         0.0956
     42 H12        -5.7403   -4.9021    0.2996 H         1 <0>         0.0911
     43 H13        -4.5351   -4.3974    1.5122 H         1 <0>         0.0936
     44 H14        -5.6584   -2.4021    0.7106 H         1 <0>         0.0946
     45 H15        -5.4013   -2.8784   -0.9822 H         1 <0>         0.0849
     46 H16        -3.4179   -6.6230    0.8036 H         1 <0>         0.4307
     47 H17        -2.9159   -6.8522   -2.0799 H         1 <0>         0.1465
     48 H18        -1.6752   -6.6244   -0.8241 H         1 <0>         0.1403
     49 H19        -2.9907   -9.6951   -3.2553 H         1 <0>         0.1519
     50 H20        -1.2342  -10.7105   -4.6907 H         1 <0>         0.1567
     51 H21         0.0378   -8.8150   -0.3772 H         1 <0>         0.1641
     52 H22        -1.4148   -8.4692    0.8237 H         1 <0>         0.3914
     53 H23        -4.5664   -6.8340   -0.3589 H         1 <0>         0.4292
@<TRIPOS>BOND
     1    1    6 ar
     2    1    2 ar
     3    1   33 1
     4    2    3 ar
     5    2   34 1
     6    3    4 ar
     7    3   30 1
     8    4    5 ar
     9    4   35 1
    10    5    6 ar
    11    5   36 1
    12    6    7 1
    13    7   12 ar
    14    7    8 ar
    15    8    9 ar
    16    8   37 1
    17    9   10 ar
    18    9   38 1
    19   10   17 1
    20   10   11 ar
    21   11   12 ar
    22   11   13 1
    23   12   39 1
    24   13   14 1
    25   13   40 1
    26   13   41 1
    27   14   15 1
    28   14   16 1
    29   14   18 1
    30   16   17 1
    31   16   42 1
    32   16   43 1
    33   17   44 1
    34   17   45 1
    35   18   19 1
    36   18   46 1
    37   18   53 1
    38   19   20 1
    39   19   47 1
    40   19   48 1
    41   20   21 1
    42   20   22 1
    43   20   29 1
    44   22   27 ar
    45   22   23 ar
    46   23   24 ar
    47   23   49 1
    48   24   25 ar
    49   24   50 1
    50   25   26 ar
    51   25   28 1
    52   26   27 ar
    53   27   51 1
    54   29   52 1
    55   30   31 2
    56   30   32 1
@<TRIPOS>MOLECULE
CHEMBL1083363
   69    75     0     0     0
SMALL
USER_CHARGES

@<TRIPOS>ATOM
      1 C1         -0.0166    1.3740    0.0096 C.ar      1 <0>        -0.1469
      2 C2          1.1714    2.0887    0.0021 C.ar      1 <0>        -0.0827
      3 C3          2.3836    1.4330   -0.0130 C.ar      1 <0>        -0.1383
      4 C4          2.4231    0.0421   -0.0214 C.ar      1 <0>         0.1336
      5 C5          1.2202   -0.6796   -0.0138 C.ar      1 <0>        -0.0920
      6 C6          0.0021   -0.0041    0.0020 C.ar      1 <0>        -0.0604
      7 C7          1.5889   -2.1068   -0.0256 C.ar      1 <0>        -0.1300
      8 C8          2.9901   -2.1563   -0.0395 C.ar      1 <0>         0.1818
      9 N1          3.4726   -0.8597   -0.0368 N.pl3     1 <0>        -0.6123
     10 H1          4.4118   -0.6174   -0.0448 H         1 <0>         0.4225
     11 C9          3.6293   -3.3927   -0.0533 C.ar      1 <0>        -0.1715
     12 C10         2.8884   -4.5554   -0.0536 C.ar      1 <0>        -0.0441
     13 C11         1.5040   -4.5098   -0.0403 C.ar      1 <0>        -0.2456
     14 C12         0.8481   -3.2912   -0.0258 C.ar      1 <0>         0.1795
     15 O1         -0.5096   -3.2469   -0.0123 O.3       1 <0>        -0.2955
     16 C13        -1.1995   -4.4984   -0.0135 C.3       1 <0>         0.0290
     17 C14        -2.7089   -4.2486    0.0028 C.3       1 <0>         0.0852
     18 C15        -3.4455   -5.5839    0.1273 C.3       1 <0>        -0.0432
     19 N2         -4.8947   -5.3441    0.1428 N.4       1 <0>        -0.3794
     20 C16        -5.2500   -4.5814    1.3456 C.3       1 <0>        -0.0045
     21 C17        -6.7457   -4.2589    1.3263 C.3       1 <0>        -0.1647
     22 C18        -7.5437   -5.5656    1.2943 C.3       1 <0>         0.1182
     23 C19        -7.1112   -6.3867    0.0760 C.3       1 <0>        -0.1673
     24 C20        -5.6019   -6.6303    0.1417 C.3       1 <0>         0.0026
     25 N3         -8.9741   -5.2640    1.1990 N.am      1 <0>        -0.5583
     26 C21        -9.4213   -4.5724    0.1336 C.2       1 <0>         0.5835
     27 O2         -8.6391   -4.2118   -0.7250 O.2       1 <0>        -0.5016
     28 C22       -10.8501   -4.2514    0.0023 C.ar      1 <0>        -0.1791
     29 C23       -11.3537   -3.5417   -1.0778 C.ar      1 <0>         0.0077
     30 C24       -12.7129   -3.2621   -1.1570 C.ar      1 <0>        -0.1441
     31 C25       -13.5849   -3.6704   -0.1890 C.ar      1 <0>        -0.0337
     32 C26       -13.1152   -4.3922    0.9222 C.ar      1 <0>        -0.0805
     33 C27       -11.7379   -4.6823    1.0142 C.ar      1 <0>         0.0135
     34 C28       -11.2346   -5.4057    2.1191 C.ar      1 <0>        -0.1764
     35 C29       -12.1139   -5.8242    3.1069 C.ar      1 <0>         0.0078
     36 C30       -13.4690   -5.5325    3.0046 C.ar      1 <0>        -0.1416
     37 C31       -13.9727   -4.8349    1.9445 C.ar      1 <0>        -0.0357
     38 C32        -9.7938   -5.6932    2.1773 C.2       1 <0>         0.5763
     39 O3         -9.3393   -6.3183    3.1162 O.2       1 <0>        -0.4883
     40 O4         -3.0977   -3.6015   -1.2105 O.3       1 <0>        -0.5411
     41 H2         -0.9602    1.8991    0.0259 H         1 <0>         0.1273
     42 H3          1.1468    3.1684    0.0078 H         1 <0>         0.1318
     43 H4          3.3033    1.9990   -0.0188 H         1 <0>         0.1269
     44 H5         -0.9248   -0.5584    0.0079 H         1 <0>         0.1253
     45 H6          4.7082   -3.4413   -0.0642 H         1 <0>         0.1303
     46 H7          3.3921   -5.5107   -0.0647 H         1 <0>         0.1351
     47 H8          0.9349   -5.4277   -0.0410 H         1 <0>         0.1280
     48 H9         -0.9336   -5.0590   -0.9096 H         1 <0>         0.0784
     49 H10        -0.9163   -5.0702    0.8702 H         1 <0>         0.0829
     50 H11        -2.9629   -3.6131    0.8511 H         1 <0>         0.1343
     51 H12        -3.1914   -6.2194   -0.7210 H         1 <0>         0.1405
     52 H13        -3.1489   -6.0775    1.0527 H         1 <0>         0.1457
     53 H14        -5.0175   -5.1720    2.2317 H         1 <0>         0.1336
     54 H15        -4.6790   -3.6532    1.3686 H         1 <0>         0.1388
     55 H16        -7.0079   -3.6942    2.2209 H         1 <0>         0.1156
     56 H17        -6.9793   -3.6681    0.4406 H         1 <0>         0.1143
     57 H18        -7.3496   -6.1336    2.2041 H         1 <0>         0.1284
     58 H19        -7.6346   -7.3428    0.0771 H         1 <0>         0.1157
     59 H20        -7.3524   -5.8400   -0.8356 H         1 <0>         0.1146
     60 H21        -5.2907   -7.2147   -0.7242 H         1 <0>         0.1376
     61 H22        -5.3619   -7.1772    1.0534 H         1 <0>         0.1332
     62 H23       -10.6880   -3.2052   -1.8589 H         1 <0>         0.1470
     63 H24       -13.0883   -2.7080   -2.0047 H         1 <0>         0.1442
     64 H25       -14.6361   -3.4384   -0.2768 H         1 <0>         0.1463
     65 H26       -11.7447   -6.3783    3.9573 H         1 <0>         0.1481
     66 H27       -14.1399   -5.8658    3.7826 H         1 <0>         0.1449
     67 H28       -15.0303   -4.6224    1.8916 H         1 <0>         0.1465
     68 H29        -2.9014   -4.1111   -2.0085 H         1 <0>         0.3899
     69 H30        -5.1561   -4.8169   -0.6768 H         1 <0>         0.4319
@<TRIPOS>BOND
     1    1    6 ar
     2    1    2 ar
     3    1   41 1
     4    2    3 ar
     5    2   42 1
     6    3    4 ar
     7    3   43 1
     8    4    9 1
     9    4    5 ar
    10    5    6 ar
    11    5    7 1
    12    6   44 1
    13    7   14 ar
    14    7    8 ar
    15    8    9 1
    16    8   11 ar
    17    9   10 1
    18   11   12 ar
    19   11   45 1
    20   12   13 ar
    21   12   46 1
    22   13   14 ar
    23   13   47 1
    24   14   15 1
    25   15   16 1
    26   16   17 1
    27   16   48 1
    28   16   49 1
    29   17   18 1
    30   17   40 1
    31   17   50 1
    32   18   19 1
    33   18   51 1
    34   18   52 1
    35   19   24 1
    36   19   20 1
    37   19   69 1
    38   20   21 1
    39   20   53 1
    40   20   54 1
    41   21   22 1
    42   21   55 1
    43   21   56 1
    44   22   23 1
    45   22   25 1
    46   22   57 1
    47   23   24 1
    48   23   58 1
    49   23   59 1
    50   24   60 1
    51   24   61 1
    52   25   38 am
    53   25   26 am
    54   26   27 2
    55   26   28 1
    56   28   33 ar
    57   28   29 ar
    58   29   30 ar
    59   29   62 1
    60   30   31 ar
    61   30   63 1
    62   31   32 ar
    63   31   64 1
    64   32   37 ar
    65   32   33 ar
    66   33   34 ar
    67   34   35 ar
    68   34   38 1
    69   35   36 ar
    70   35   65 1
    71   36   37 ar
    72   36   66 1
    73   37   67 1
    74   38   39 2
    75   40   68 1
@<TRIPOS>MOLECULE
CHEMBL1083363__1
   69    75     0     0     0
SMALL
USER_CHARGES

@<TRIPOS>ATOM
      1 C1         -1.3614   -9.0235   -6.7564 C.ar      1 <0>        -0.1469
      2 C2         -0.3595   -9.6540   -7.4782 C.ar      1 <0>        -0.0827
      3 C3          0.9008   -9.8066   -6.9416 C.ar      1 <0>        -0.1383
      4 C4          1.1772   -9.3266   -5.6650 C.ar      1 <0>         0.1336
      5 C5          0.1625   -8.6889   -4.9360 C.ar      1 <0>        -0.0920
      6 C6         -1.1068   -8.5410   -5.4907 C.ar      1 <0>        -0.0603
      7 C7          0.7567   -8.3007   -3.6441 C.ar      1 <0>        -0.1300
      8 C8          2.0917   -8.7284   -3.6750 C.ar      1 <0>         0.1818
      9 N1          2.3256   -9.3407   -4.8932 N.pl3     1 <0>        -0.6122
     10 H1          3.1731   -9.7252   -5.1670 H         1 <0>         0.4225
     11 C9          2.9091   -8.4941   -2.5730 C.ar      1 <0>        -0.1715
     12 C10         2.4072   -7.8477   -1.4633 C.ar      1 <0>        -0.0441
     13 C11         1.0887   -7.4244   -1.4297 C.ar      1 <0>        -0.2456
     14 C12         0.2587   -7.6465   -2.5147 C.ar      1 <0>         0.1795
     15 O1         -1.0342   -7.2308   -2.4813 O.3       1 <0>        -0.2955
     16 C13        -1.4725   -6.5691   -1.2930 C.3       1 <0>         0.0290
     17 C14        -2.9443   -6.1779   -1.4404 C.3       1 <0>         0.0853
     18 C15        -3.4479   -5.5823   -0.1242 C.3       1 <0>        -0.0432
     19 N2         -4.8651   -5.2205   -0.2609 N.4       1 <0>        -0.3796
     20 C16        -5.3059   -4.5105    0.9457 C.3       1 <0>         0.0024
     21 C17        -6.7584   -4.0602    0.7752 C.3       1 <0>        -0.1664
     22 C18        -7.6449   -5.2887    0.5513 C.3       1 <0>         0.1183
     23 C19        -7.1304   -6.0624   -0.6660 C.3       1 <0>        -0.1658
     24 C20        -5.6641   -6.4384   -0.4420 C.3       1 <0>        -0.0041
     25 N3         -9.0251   -4.8598    0.3117 N.am      1 <0>        -0.5584
     26 C21        -9.2827   -4.0642   -0.7438 C.2       1 <0>         0.5834
     27 O2         -8.3752   -3.7167   -1.4749 O.2       1 <0>        -0.5015
     28 C22       -10.6553   -3.6138   -1.0175 C.ar      1 <0>        -0.1791
     29 C23       -10.9655   -2.7943   -2.0927 C.ar      1 <0>         0.0077
     30 C24       -12.2789   -2.3945   -2.3098 C.ar      1 <0>        -0.1441
     31 C25       -13.2926   -2.7889   -1.4844 C.ar      1 <0>        -0.0337
     32 C26       -13.0206   -3.6195   -0.3833 C.ar      1 <0>        -0.0805
     33 C27       -11.6917   -4.0322   -0.1523 C.ar      1 <0>         0.0135
     34 C28       -11.3859   -4.8669    0.9465 C.ar      1 <0>        -0.1764
     35 C29       -12.4099   -5.2721    1.7899 C.ar      1 <0>         0.0078
     36 C30       -13.7155   -4.8590    1.5513 C.ar      1 <0>        -0.1416
     37 C31       -14.0292   -4.0529    0.4949 C.ar      1 <0>        -0.0357
     38 C32        -9.9898   -5.2801    1.1518 C.2       1 <0>         0.5764
     39 O3         -9.7042   -6.0020    2.0878 O.2       1 <0>        -0.4883
     40 O4         -3.0778   -5.2101   -2.4832 O.3       1 <0>        -0.5410
     41 H2         -2.3438   -8.9060   -7.1894 H         1 <0>         0.1274
     42 H3         -0.5685  -10.0292   -8.4691 H         1 <0>         0.1318
     43 H4          1.6742  -10.2992   -7.5121 H         1 <0>         0.1269
     44 H5         -1.8889   -8.0502   -4.9306 H         1 <0>         0.1253
     45 H6          3.9387   -8.8197   -2.5870 H         1 <0>         0.1303
     46 H7          3.0480   -7.6701   -0.6123 H         1 <0>         0.1351
     47 H8          0.7074   -6.9194   -0.5544 H         1 <0>         0.1280
     48 H9         -1.3582   -7.2391   -0.4409 H         1 <0>         0.0828
     49 H10        -0.8726   -5.6731   -1.1338 H         1 <0>         0.0785
     50 H11        -3.5322   -7.0619   -1.6877 H         1 <0>         0.1341
     51 H12        -3.3357   -6.3167    0.6735 H         1 <0>         0.1457
     52 H13        -2.8673   -4.6920    0.1174 H         1 <0>         0.1405
     53 H14        -5.2308   -5.1756    1.8060 H         1 <0>         0.1333
     54 H15        -4.6720   -3.6382    1.1054 H         1 <0>         0.1376
     55 H16        -7.0844   -3.5348    1.6728 H         1 <0>         0.1159
     56 H17        -6.8346   -3.3948   -0.0848 H         1 <0>         0.1135
     57 H18        -7.6090   -5.9296    1.4323 H         1 <0>         0.1284
     58 H19        -7.7223   -6.9681   -0.7985 H         1 <0>         0.1155
     59 H20        -7.2143   -5.4385   -1.5558 H         1 <0>         0.1155
     60 H21        -5.2947   -6.9896   -1.3068 H         1 <0>         0.1384
     61 H22        -5.5813   -7.0624    0.4478 H         1 <0>         0.1336
     62 H23       -10.1847   -2.4659   -2.7627 H         1 <0>         0.1470
     63 H24       -12.5030   -1.7561   -3.1515 H         1 <0>         0.1442
     64 H25       -14.3038   -2.4623   -1.6774 H         1 <0>         0.1463
     65 H26       -12.1924   -5.9102    2.6336 H         1 <0>         0.1481
     66 H27       -14.5009   -5.1837    2.2178 H         1 <0>         0.1449
     67 H28       -15.0525   -3.7474    0.3343 H         1 <0>         0.1465
     68 H29        -2.5800   -4.3954   -2.3297 H         1 <0>         0.3899
     69 H30        -4.9820   -4.6203   -1.0635 H         1 <0>         0.4320
@<TRIPOS>BOND
     1    1    6 ar
     2    1    2 ar
     3    1   41 1
     4    2    3 ar
     5    2   42 1
     6    3    4 ar
     7    3   43 1
     8    4    9 1
     9    4    5 ar
    10    5    6 ar
    11    5    7 1
    12    6   44 1
    13    7   14 ar
    14    7    8 ar
    15    8    9 1
    16    8   11 ar
    17    9   10 1
    18   11   12 ar
    19   11   45 1
    20   12   13 ar
    21   12   46 1
    22   13   14 ar
    23   13   47 1
    24   14   15 1
    25   15   16 1
    26   16   17 1
    27   16   48 1
    28   16   49 1
    29   17   18 1
    30   17   40 1
    31   17   50 1
    32   18   19 1
    33   18   51 1
    34   18   52 1
    35   19   24 1
    36   19   20 1
    37   19   69 1
    38   20   21 1
    39   20   53 1
    40   20   54 1
    41   21   22 1
    42   21   55 1
    43   21   56 1
    44   22   23 1
    45   22   25 1
    46   22   57 1
    47   23   24 1
    48   23   58 1
    49   23   59 1
    50   24   60 1
    51   24   61 1
    52   25   38 am
    53   25   26 am
    54   26   27 2
    55   26   28 1
    56   28   33 ar
    57   28   29 ar
    58   29   30 ar
    59   29   62 1
    60   30   31 ar
    61   30   63 1
    62   31   32 ar
    63   31   64 1
    64   32   37 ar
    65   32   33 ar
    66   33   34 ar
    67   34   35 ar
    68   34   38 1
    69   35   36 ar
    70   35   65 1
    71   36   37 ar
    72   36   66 1
    73   37   67 1
    74   38   39 2
    75   40   68 1
@<TRIPOS>MOLECULE
CHEMBL467082
   67    70     0     0     0
SMALL
USER_CHARGES

@<TRIPOS>ATOM
      1 C1          1.6943   -8.0093    4.3868 C.ar      1 <0>        -0.0781
      2 C2          0.6085   -7.6204    5.1495 C.ar      1 <0>        -0.0940
      3 C3         -0.1602   -6.5412    4.7594 C.ar      1 <0>        -0.0863
      4 C4          0.1585   -5.8464    3.6007 C.ar      1 <0>         0.0590
      5 C5          1.2494   -6.2389    2.8372 C.ar      1 <0>        -0.1090
      6 C6          2.0142   -7.3192    3.2320 C.ar      1 <0>        -0.0942
      7 N1         -0.6203   -4.7506    3.2018 N.pl3     1 <0>        -0.3389
      8 C7         -1.9869   -4.7173    3.0963 C.2       1 <0>         0.0373
      9 C8         -2.3161   -3.4785    2.6838 C.2       1 <0>         0.0163
     10 N2         -1.1858   -2.7708    2.5398 N.pl3     1 <0>        -0.4600
     11 C9         -0.1638   -3.5198    2.8528 C.cat     1 <0>         0.3202
     12 C10         1.2810   -3.0920    2.8274 C.3       1 <0>        -0.1008
     13 C11         1.6279   -2.4169    4.1293 C.2       1 <0>         0.5213
     14 O1          0.7849   -2.2950    4.9927 O.2       1 <0>        -0.5076
     15 N3          2.8749   -1.9484    4.3341 N.am      1 <0>        -0.6603
     16 C12         3.1719   -1.2366    5.5016 C.ar      1 <0>         0.1466
     17 C13         4.0758   -0.1830    5.4632 C.ar      1 <0>        -0.1310
     18 C14         4.3669    0.5176    6.6173 C.ar      1 <0>        -0.0864
     19 C15         3.7592    0.1710    7.8101 C.ar      1 <0>        -0.1101
     20 C16         2.8591   -0.8779    7.8517 C.ar      1 <0>        -0.0890
     21 C17         2.5591   -1.5785    6.6999 C.ar      1 <0>        -0.1136
     22 C18         4.0791    0.9376    9.0675 C.3       1 <0>        -0.1037
     23 C19         3.1089    2.1121    9.2095 C.3       1 <0>        -0.0060
     24 N4          3.4207    2.8594   10.4352 N.4       1 <0>        -0.5041
     25 C20         2.4891    3.9870   10.5715 C.3       1 <0>        -0.0413
     26 C21         2.8139    4.7654   11.8481 C.3       1 <0>         0.0850
     27 H1          3.8352    5.1423   11.7939 H         1 <0>         0.1368
     28 C22         1.8436    5.9398   11.9901 C.3       1 <0>         0.0301
     29 O2          2.2186    6.7338   13.1176 O.3       1 <0>        -0.3026
     30 C23         1.4536    7.8246   13.3858 C.ar      1 <0>         0.1148
     31 C24         0.3612    8.1214   12.5838 C.ar      1 <0>        -0.2099
     32 C25        -0.4150    9.2305   12.8588 C.ar      1 <0>        -0.0805
     33 C26        -0.1037   10.0448   13.9321 C.ar      1 <0>        -0.1458
     34 C27         0.9848    9.7514   14.7326 C.ar      1 <0>        -0.0754
     35 C28         1.7605    8.6399   14.4654 C.ar      1 <0>        -0.1434
     36 O3          2.6845    3.9012   12.9788 O.3       1 <0>        -0.5426
     37 H2          2.2964   -8.8509    4.6959 H         1 <0>         0.1472
     38 H3          0.3610   -8.1613    6.0510 H         1 <0>         0.1494
     39 H4         -1.0086   -6.2383    5.3552 H         1 <0>         0.1412
     40 H5          1.4996   -5.7005    1.9350 H         1 <0>         0.1383
     41 H6          2.8631   -7.6250    2.6385 H         1 <0>         0.1498
     42 H7         -2.6684   -5.5289    3.3038 H         1 <0>         0.2282
     43 H8         -3.3172   -3.1172    2.5002 H         1 <0>         0.2322
     44 H9          1.9167   -3.9669    2.6912 H         1 <0>         0.1524
     45 H10         1.4394   -2.3960    2.0036 H         1 <0>         0.1583
     46 H11         3.5666   -2.1047    3.6722 H         1 <0>         0.4224
     47 H12         4.5510    0.0880    4.5320 H         1 <0>         0.1366
     48 H13         5.0700    1.3369    6.5882 H         1 <0>         0.1349
     49 H14         2.3864   -1.1464    8.7850 H         1 <0>         0.1315
     50 H15         1.8521   -2.3943    6.7320 H         1 <0>         0.1420
     51 H16         3.9804    0.2785    9.9300 H         1 <0>         0.0997
     52 H17         5.1004    1.3146    9.0133 H         1 <0>         0.1007
     53 H18         3.2076    2.7713    8.3470 H         1 <0>         0.1344
     54 H19         2.0876    1.7351    9.2637 H         1 <0>         0.1328
     55 H20         3.3293    2.2492   11.2336 H         1 <0>         0.4345
     56 H21         2.5878    4.6462    9.7091 H         1 <0>         0.1472
     57 H22         1.4678    3.6101   10.6257 H         1 <0>         0.1394
     58 H23         1.8781    6.5507   11.0880 H         1 <0>         0.0807
     59 H24         0.8320    5.5601   12.1334 H         1 <0>         0.0756
     60 H25         0.1181    7.4861   11.7450 H         1 <0>         0.1221
     61 H26        -1.2656    9.4620   12.2348 H         1 <0>         0.1285
     62 H27        -0.7116   10.9116   14.1452 H         1 <0>         0.1306
     63 H28         1.2261   10.3891   15.5701 H         1 <0>         0.1364
     64 H29         2.6080    8.4087   15.0937 H         1 <0>         0.1338
     65 H30         1.7992    3.5282   13.0895 H         1 <0>         0.3899
     66 H31         4.3661    3.2084   10.3850 H         1 <0>         0.4325
     67 H32        -1.1361   -1.8457    2.2524 H         1 <0>         0.4641
@<TRIPOS>BOND
     1    1    6 ar
     2    1    2 ar
     3    1   37 1
     4    2    3 ar
     5    2   38 1
     6    3    4 ar
     7    3   39 1
     8    4    5 ar
     9    4    7 1
    10    5    6 ar
    11    5   40 1
    12    6   41 1
    13    7   11 1
    14    7    8 1
    15    8    9 2
    16    8   42 1
    17    9   10 1
    18    9   43 1
    19   10   11 2
    20   10   67 1
    21   11   12 1
    22   12   13 1
    23   12   44 1
    24   12   45 1
    25   13   14 2
    26   13   15 am
    27   15   16 1
    28   15   46 1
    29   16   21 ar
    30   16   17 ar
    31   17   18 ar
    32   17   47 1
    33   18   19 ar
    34   18   48 1
    35   19   20 ar
    36   19   22 1
    37   20   21 ar
    38   20   49 1
    39   21   50 1
    40   22   23 1
    41   22   51 1
    42   22   52 1
    43   23   24 1
    44   23   53 1
    45   23   54 1
    46   24   25 1
    47   24   55 1
    48   24   66 1
    49   25   26 1
    50   25   56 1
    51   25   57 1
    52   26   27 1
    53   26   28 1
    54   26   36 1
    55   28   29 1
    56   28   58 1
    57   28   59 1
    58   29   30 1
    59   30   35 ar
    60   30   31 ar
    61   31   32 ar
    62   31   60 1
    63   32   33 ar
    64   32   61 1
    65   33   34 ar
    66   33   62 1
    67   34   35 ar
    68   34   63 1
    69   35   64 1
    70   36   65 1
@<TRIPOS>MOLECULE
CHEMBL467082__1
   66    69     0     0     0
SMALL
USER_CHARGES

@<TRIPOS>ATOM
      1 C1          7.1900   -5.5049    3.6604 C.ar      1 <0>        -0.1107
      2 C2          7.4885   -4.6687    4.7204 C.ar      1 <0>        -0.0989
      3 C3          6.4711   -4.1158    5.4734 C.ar      1 <0>        -0.1112
      4 C4          5.1478   -4.4000    5.1648 C.ar      1 <0>         0.1142
      5 C5          4.8512   -5.2395    4.0998 C.ar      1 <0>        -0.1225
      6 C6          5.8728   -5.7898    3.3506 C.ar      1 <0>        -0.1040
      7 N1          4.1127   -3.8405    5.9278 N.pl3     1 <0>        -0.4064
      8 C7          4.0140   -3.8450    7.2952 C.2       1 <0>        -0.0396
      9 C8          2.8715   -3.2037    7.6059 C.2       1 <0>        -0.0175
     10 N2          2.2848   -2.8162    6.4637 N.2       1 <0>        -0.4663
     11 C9          3.0214   -3.1865    5.4518 C.2       1 <0>         0.2215
     12 C10         2.7113   -2.9342    3.9988 C.3       1 <0>        -0.0569
     13 C11         1.8983   -4.0794    3.4525 C.2       1 <0>         0.5218
     14 O1          1.6000   -5.0090    4.1721 O.2       1 <0>        -0.5003
     15 N3          1.5026   -4.0706    2.1641 N.am      1 <0>        -0.6767
     16 C12         0.8317   -5.1766    1.6307 C.ar      1 <0>         0.1656
     17 C13         1.0459   -5.5501    0.3105 C.ar      1 <0>        -0.1413
     18 C14         0.3821   -6.6423   -0.2130 C.ar      1 <0>        -0.0879
     19 C15        -0.4951   -7.3636    0.5760 C.ar      1 <0>        -0.1264
     20 C16        -0.7109   -6.9939    1.8909 C.ar      1 <0>        -0.0876
     21 C17        -0.0455   -5.9065    2.4222 C.ar      1 <0>        -0.1174
     22 C18        -1.2177   -8.5547    0.0015 C.3       1 <0>        -0.0976
     23 C19        -0.3806   -9.8157    0.2253 C.3       1 <0>        -0.0074
     24 N4         -1.0850  -10.9768   -0.3347 N.4       1 <0>        -0.5036
     25 C20        -0.2813  -12.1875   -0.1198 C.3       1 <0>        -0.0418
     26 C21        -1.0149  -13.3969   -0.7031 C.3       1 <0>         0.0858
     27 H1         -1.1687  -13.2478   -1.7718 H         1 <0>         0.1359
     28 C22        -0.1778  -14.6579   -0.4793 C.3       1 <0>         0.0297
     29 O2         -0.8059  -15.7673   -1.1248 O.3       1 <0>        -0.3027
     30 C23        -0.1862  -16.9725   -1.0222 C.ar      1 <0>         0.1164
     31 C24         0.9989  -17.0860   -0.3100 C.ar      1 <0>        -0.2095
     32 C25         1.6266  -18.3123   -0.2068 C.ar      1 <0>        -0.0801
     33 C26         1.0749  -19.4258   -0.8130 C.ar      1 <0>        -0.1474
     34 C27        -0.1059  -19.3152   -1.5238 C.ar      1 <0>        -0.0764
     35 C28        -0.7407  -18.0924   -1.6247 C.ar      1 <0>        -0.1445
     36 O3         -2.2803  -13.5441   -0.0557 O.3       1 <0>        -0.5435
     37 H2          7.9870   -5.9328    3.0705 H         1 <0>         0.1327
     38 H3          8.5182   -4.4480    4.9601 H         1 <0>         0.1370
     39 H4          6.7048   -3.4633    6.3017 H         1 <0>         0.1338
     40 H5          3.8226   -5.4626    3.8576 H         1 <0>         0.1296
     41 H6          5.6427   -6.4430    2.5219 H         1 <0>         0.1298
     42 H7          4.7174   -4.2799    7.9899 H         1 <0>         0.1797
     43 H8          2.4928   -3.0315    8.6025 H         1 <0>         0.1782
     44 H9          2.1442   -2.0081    3.9039 H         1 <0>         0.1349
     45 H10         3.6421   -2.8493    3.4381 H         1 <0>         0.1157
     46 H11         1.6829   -3.2975    1.6067 H         1 <0>         0.4180
     47 H12         1.7306   -4.9870   -0.3064 H         1 <0>         0.1332
     48 H13         0.5480   -6.9331   -1.2398 H         1 <0>         0.1289
     49 H14        -1.3969   -7.5591    2.5044 H         1 <0>         0.1278
     50 H15        -0.2106   -5.6214    3.4507 H         1 <0>         0.1459
     51 H16        -2.1829   -8.6670    0.4953 H         1 <0>         0.0966
     52 H17        -1.3715   -8.4057   -1.0673 H         1 <0>         0.0966
     53 H18         0.5846   -9.7034   -0.2685 H         1 <0>         0.1341
     54 H19        -0.2268   -9.9648    1.2940 H         1 <0>         0.1337
     55 H20        -1.9785  -11.0808    0.1224 H         1 <0>         0.4338
     56 H21         0.6840  -12.0753   -0.6136 H         1 <0>         0.1468
     57 H22        -0.1275  -12.3366    0.9489 H         1 <0>         0.1397
     58 H23         0.8185  -14.5113   -0.8963 H         1 <0>         0.0811
     59 H24        -0.0987  -14.8565    0.5896 H         1 <0>         0.0763
     60 H25         1.4306  -16.2164    0.1631 H         1 <0>         0.1233
     61 H26         2.5492  -18.4012    0.3475 H         1 <0>         0.1285
     62 H27         1.5674  -20.3835   -0.7315 H         1 <0>         0.1297
     63 H28        -0.5346  -20.1864   -1.9966 H         1 <0>         0.1353
     64 H29        -1.6654  -18.0074   -2.1762 H         1 <0>         0.1333
     65 H30        -2.2199  -13.6806    0.8997 H         1 <0>         0.3903
     66 H31        -1.2273  -10.8388   -1.3240 H         1 <0>         0.4309
@<TRIPOS>BOND
     1    1    6 ar
     2    1    2 ar
     3    1   37 1
     4    2    3 ar
     5    2   38 1
     6    3    4 ar
     7    3   39 1
     8    4    5 ar
     9    4    7 1
    10    5    6 ar
    11    5   40 1
    12    6   41 1
    13    7   11 1
    14    7    8 1
    15    8    9 2
    16    8   42 1
    17    9   10 1
    18    9   43 1
    19   10   11 2
    20   11   12 1
    21   12   13 1
    22   12   44 1
    23   12   45 1
    24   13   14 2
    25   13   15 am
    26   15   16 1
    27   15   46 1
    28   16   21 ar
    29   16   17 ar
    30   17   18 ar
    31   17   47 1
    32   18   19 ar
    33   18   48 1
    34   19   20 ar
    35   19   22 1
    36   20   21 ar
    37   20   49 1
    38   21   50 1
    39   22   23 1
    40   22   51 1
    41   22   52 1
    42   23   24 1
    43   23   53 1
    44   23   54 1
    45   24   25 1
    46   24   55 1
    47   24   66 1
    48   25   26 1
    49   25   56 1
    50   25   57 1
    51   26   27 1
    52   26   28 1
    53   26   36 1
    54   28   29 1
    55   28   58 1
    56   28   59 1
    57   29   30 1
    58   30   35 ar
    59   30   31 ar
    60   31   32 ar
    61   31   60 1
    62   32   33 ar
    63   32   61 1
    64   33   34 ar
    65   33   62 1
    66   34   35 ar
    67   34   63 1
    68   35   64 1
    69   36   65 1
@<TRIPOS>MOLECULE
CHEMBL455773
   75    78     0     0     0
SMALL
USER_CHARGES

@<TRIPOS>ATOM
      1 C1         -0.0017    1.8068    0.0269 C.3       1 <0>        -0.6569
      2 S1         -0.0065   -0.0070   -0.0012 S.o2      1 <0>         2.5737
      3 O1          0.8065   -0.5149    1.0477 O.2       1 <0>        -0.9983
      4 O2         -1.3294   -0.4900   -0.1912 O.2       1 <0>        -0.9981
      5 N1          0.7954   -0.4132   -1.3920 N.2       1 <0>        -1.0802
      6 C2          0.9623   -1.6658   -1.7049 C.2       1 <0>         0.5336
      7 O3          0.4807   -2.6355   -0.8941 O.3       1 <0>        -0.6982
      8 C3          1.6772   -2.0279   -2.9446 C.ar      1 <0>        -0.1284
      9 C4          1.9625   -3.3668   -3.2224 C.ar      1 <0>        -0.0242
     10 C5          2.6287   -3.7041   -4.3778 C.ar      1 <0>        -0.1859
     11 C6          3.0220   -2.7110   -5.2774 C.ar      1 <0>        -0.0221
     12 C7          2.7421   -1.3744   -5.0091 C.ar      1 <0>        -0.2100
     13 C8          2.0664   -1.0284   -3.8492 C.ar      1 <0>         0.2704
     14 N2          1.7798    0.3061   -3.5803 N.pl3     1 <0>        -0.7136
     15 C9          2.0799    1.3353   -4.5787 C.3       1 <0>         0.1437
     16 C10         3.5393    1.7726   -4.4376 C.3       1 <0>        -0.1365
     17 C11         3.8527    2.8475   -5.4804 C.3       1 <0>        -0.1144
     18 C12         2.9358    4.0527   -5.2620 C.3       1 <0>        -0.1219
     19 C13         1.4764    3.6154   -5.4031 C.3       1 <0>        -0.1141
     20 C14         1.1630    2.5405   -4.3603 C.3       1 <0>        -0.1285
     21 C15         3.7399   -3.0816   -6.5212 C.ar      1 <0>         0.0013
     22 C16         4.1394   -2.0932   -7.4192 C.ar      1 <0>        -0.1118
     23 C17         4.8071   -2.4439   -8.5750 C.ar      1 <0>        -0.1051
     24 C18         5.0796   -3.7733   -8.8432 C.ar      1 <0>        -0.1274
     25 C19         4.6855   -4.7584   -7.9556 C.ar      1 <0>        -0.1048
     26 C20         4.0227   -4.4189   -6.7937 C.ar      1 <0>        -0.1112
     27 C21         5.8081   -4.1499  -10.1075 C.3       1 <0>        -0.0945
     28 C22         7.3153   -4.1583   -9.8444 C.3       1 <0>        -0.0080
     29 N3          8.0255   -4.5254  -11.0768 N.4       1 <0>        -0.5056
     30 C23         9.4726   -4.5336  -10.8242 C.3       1 <0>        -0.0419
     31 C24        10.2122   -4.9159  -12.1078 C.3       1 <0>         0.1353
     32 H1          9.9838   -4.1904  -12.8886 H         1 <0>         0.1310
     33 C25        11.6967   -4.9242  -11.8486 C.ar      1 <0>        -0.1427
     34 C26        12.3011   -6.0531  -11.3278 C.ar      1 <0>        -0.1065
     35 C27        13.6628   -6.0608  -11.0901 C.ar      1 <0>        -0.1118
     36 C28        14.4203   -4.9397  -11.3735 C.ar      1 <0>        -0.0999
     37 C29        13.8161   -3.8111  -11.8952 C.ar      1 <0>        -0.1128
     38 C30        12.4550   -3.8049  -12.1369 C.ar      1 <0>        -0.1021
     39 O4          9.7949   -6.2161  -12.5288 O.3       1 <0>        -0.5488
     40 H2          1.0269    2.1673    0.0346 H         1 <0>         0.1169
     41 H3         -0.5127    2.1852   -0.8584 H         1 <0>         0.1165
     42 H4         -0.5164    2.1577    0.9213 H         1 <0>         0.1101
     43 H5          1.6601   -4.1379   -2.5293 H         1 <0>         0.1342
     44 H6          2.8485   -4.7400   -4.5896 H         1 <0>         0.1164
     45 H7          3.0475   -0.6078   -5.7059 H         1 <0>         0.1208
     46 H8          1.3813    0.5552   -2.7317 H         1 <0>         0.4292
     47 H9          1.9168    0.9310   -5.5777 H         1 <0>         0.0679
     48 H10         3.7025    2.1770   -3.4386 H         1 <0>         0.0669
     49 H11         4.1925    0.9140   -4.5932 H         1 <0>         0.0636
     50 H12         4.8924    3.1590   -5.3798 H         1 <0>         0.0592
     51 H13         3.6896    2.4431   -6.4793 H         1 <0>         0.0577
     52 H14         3.0990    4.4570   -4.2630 H         1 <0>         0.0630
     53 H15         3.1591    4.8184   -6.0048 H         1 <0>         0.0592
     54 H16         0.8232    4.4740   -5.2475 H         1 <0>         0.0642
     55 H17         1.3133    3.2110   -6.4020 H         1 <0>         0.0611
     56 H18         0.1233    2.2290   -4.4609 H         1 <0>         0.0701
     57 H19         1.3262    2.9449   -3.3613 H         1 <0>         0.0688
     58 H20         3.9265   -1.0551   -7.2111 H         1 <0>         0.1307
     59 H21         5.1171   -1.6789   -9.2715 H         1 <0>         0.1208
     60 H22         4.9009   -5.7947   -8.1702 H         1 <0>         0.1215
     61 H23         3.7197   -5.1884   -6.0991 H         1 <0>         0.1341
     62 H24         5.4898   -5.1416  -10.4287 H         1 <0>         0.0930
     63 H25         5.5797   -3.4244  -10.8883 H         1 <0>         0.0927
     64 H26         7.6336   -3.1666   -9.5233 H         1 <0>         0.1336
     65 H27         7.5437   -4.8838   -9.0636 H         1 <0>         0.1332
     66 H28         7.7308   -5.4435  -11.3741 H         1 <0>         0.4309
     67 H29         9.7909   -3.5418  -10.5031 H         1 <0>         0.1442
     68 H30         9.7010   -5.2590  -10.0434 H         1 <0>         0.1364
     69 H31        11.7093   -6.9290  -11.1064 H         1 <0>         0.1226
     70 H32        14.1349   -6.9426  -10.6826 H         1 <0>         0.1313
     71 H33        15.4841   -4.9455  -11.1871 H         1 <0>         0.1312
     72 H34        14.4078   -2.9351  -12.1163 H         1 <0>         0.1316
     73 H35        11.9836   -2.9245  -12.5479 H         1 <0>         0.1275
     74 H36         9.9676   -6.9134  -11.8814 H         1 <0>         0.3882
     75 H37         7.8140   -3.8539  -11.7996 H         1 <0>         0.4282
@<TRIPOS>BOND
     1    1    2 1
     2    1   40 1
     3    1   41 1
     4    1   42 1
     5    2    3 2
     6    2    4 2
     7    2    5 1
     8    5    6 2
     9    6    7 1
    10    6    8 1
    11    8   13 ar
    12    8    9 ar
    13    9   10 ar
    14    9   43 1
    15   10   11 ar
    16   10   44 1
    17   11   12 ar
    18   11   21 1
    19   12   13 ar
    20   12   45 1
    21   13   14 1
    22   14   15 1
    23   14   46 1
    24   15   20 1
    25   15   16 1
    26   15   47 1
    27   16   17 1
    28   16   48 1
    29   16   49 1
    30   17   18 1
    31   17   50 1
    32   17   51 1
    33   18   19 1
    34   18   52 1
    35   18   53 1
    36   19   20 1
    37   19   54 1
    38   19   55 1
    39   20   56 1
    40   20   57 1
    41   21   26 ar
    42   21   22 ar
    43   22   23 ar
    44   22   58 1
    45   23   24 ar
    46   23   59 1
    47   24   25 ar
    48   24   27 1
    49   25   26 ar
    50   25   60 1
    51   26   61 1
    52   27   28 1
    53   27   62 1
    54   27   63 1
    55   28   29 1
    56   28   64 1
    57   28   65 1
    58   29   30 1
    59   29   66 1
    60   29   75 1
    61   30   31 1
    62   30   67 1
    63   30   68 1
    64   31   32 1
    65   31   33 1
    66   31   39 1
    67   33   38 ar
    68   33   34 ar
    69   34   35 ar
    70   34   69 1
    71   35   36 ar
    72   35   70 1
    73   36   37 ar
    74   36   71 1
    75   37   38 ar
    76   37   72 1
    77   38   73 1
    78   39   74 1
@<TRIPOS>MOLECULE
CHEMBL13132
   76    79     0     0     0
SMALL
USER_CHARGES

@<TRIPOS>ATOM
      1 C1         14.7648  -12.0359   13.6316 C.ar      1 <0>        -0.1026
      2 C2         14.3645  -12.6734   12.4721 C.ar      1 <0>        -0.1204
      3 C3         14.3216  -11.9759   11.2794 C.ar      1 <0>        -0.0914
      4 C4         14.6785  -10.6409   11.2462 C.ar      1 <0>        -0.1069
      5 C5         15.0780  -10.0032   12.4058 C.ar      1 <0>        -0.0943
      6 C6         15.1222  -10.7010   13.5983 C.ar      1 <0>        -0.1234
      7 C7         14.6327   -9.8808    9.9457 C.3       1 <0>         0.1288
      8 O1         13.3405   -9.2927    9.7830 O.3       1 <0>        -0.3513
      9 C8         13.1326   -8.5739    8.6636 C.2       1 <0>         0.6509
     10 O2         14.0240   -8.4494    7.8472 O.2       1 <0>        -0.5452
     11 N1         11.9359   -7.9926    8.4485 N.am      1 <0>        -0.6546
     12 C9         11.7496   -7.1655    7.3350 C.ar      1 <0>         0.2214
     13 C10        10.9327   -6.0465    7.4283 C.ar      1 <0>        -0.1637
     14 C11        10.7509   -5.2323    6.3276 C.ar      1 <0>         0.0033
     15 C12        11.3813   -5.5305    5.1335 C.ar      1 <0>        -0.6923
     16 C13        12.1955   -6.6441    5.0374 C.ar      1 <0>         0.0068
     17 C14        12.3859   -7.4590    6.1361 C.ar      1 <0>        -0.1393
     18 S1         11.1463   -4.4896    3.7314 S.o2      1 <0>         2.6897
     19 O3         11.2898   -5.3154    2.5839 O.2       1 <0>        -0.9384
     20 O4          9.9715   -3.7304    3.9816 O.2       1 <0>        -0.9449
     21 N2         12.4066   -3.4156    3.7022 N.pl3     1 <0>        -1.0595
     22 C15        12.5720   -2.5045    4.7478 C.ar      1 <0>         0.1672
     23 C16        11.4782   -1.8043    5.2406 C.ar      1 <0>        -0.1510
     24 C17        11.6452   -0.9044    6.2749 C.ar      1 <0>        -0.0826
     25 C18        12.8997   -0.6998    6.8196 C.ar      1 <0>        -0.1210
     26 C19        13.9908   -1.3952    6.3314 C.ar      1 <0>        -0.0880
     27 C20        13.8298   -2.3007    5.3011 C.ar      1 <0>        -0.1257
     28 C21        13.0783    0.2836    7.9474 C.3       1 <0>        -0.0995
     29 C22        12.8953   -0.4359    9.2852 C.3       1 <0>        -0.0083
     30 N3         13.0694    0.5227   10.3846 N.4       1 <0>        -0.5040
     31 C23        12.8937   -0.1681   11.6691 C.3       1 <0>        -0.0419
     32 C24        13.0750    0.8304   12.8141 C.3       1 <0>         0.0856
     33 H1         12.3339    1.6246   12.7244 H         1 <0>         0.1367
     34 C25        12.8920    0.1109   14.1519 C.3       1 <0>         0.0290
     35 O5         12.9456    1.0630   15.2161 O.3       1 <0>        -0.3009
     36 C26        12.7989    0.5846   16.4806 C.ar      1 <0>         0.1088
     37 C27        12.6132   -0.7737   16.6909 C.ar      1 <0>        -0.1914
     38 C28        12.4643   -1.2597   17.9753 C.ar      1 <0>        -0.1063
     39 C29        12.5008   -0.3894   19.0546 C.ar      1 <0>         0.0807
     40 C30        12.6874    0.9688   18.8444 C.ar      1 <0>        -0.1025
     41 C31        12.8407    1.4542   17.5603 C.ar      1 <0>        -0.1257
     42 O6         12.3533   -0.8677   20.3190 O.3       1 <0>        -0.4957
     43 O7         14.3868    1.3936   12.7518 O.3       1 <0>        -0.5430
     44 H2         14.7940  -12.5797   14.5643 H         1 <0>         0.1280
     45 H3         14.0856  -13.7164   12.4981 H         1 <0>         0.1293
     46 H4         14.0095  -12.4742   10.3734 H         1 <0>         0.1262
     47 H5         15.3572   -8.9602   12.3798 H         1 <0>         0.1223
     48 H6         15.4346  -10.2029   14.5042 H         1 <0>         0.1270
     49 H7         15.3900   -9.0969    9.9562 H         1 <0>         0.0808
     50 H8         14.8280  -10.5635    9.1188 H         1 <0>         0.0835
     51 H9         11.2036   -8.1474    9.0656 H         1 <0>         0.4240
     52 H10        10.4397   -5.8133    8.3605 H         1 <0>         0.1390
     53 H11        10.1153   -4.3620    6.3994 H         1 <0>         0.1467
     54 H12        12.6862   -6.8745    4.1033 H         1 <0>         0.1469
     55 H13        13.0254   -8.3261    6.0617 H         1 <0>         0.1543
     56 H14        13.0298   -3.4193    2.9589 H         1 <0>         0.4327
     57 H15        10.4983   -1.9631    4.8152 H         1 <0>         0.1643
     58 H16        10.7952   -0.3597    6.6585 H         1 <0>         0.1330
     59 H17        14.9692   -1.2330    6.7590 H         1 <0>         0.1296
     60 H18        14.6815   -2.8468    4.9233 H         1 <0>         0.1359
     61 H19        14.0790    0.7132    7.8998 H         1 <0>         0.0974
     62 H20        12.3373    1.0779    7.8577 H         1 <0>         0.0986
     63 H21        11.8947   -0.8655    9.3328 H         1 <0>         0.1354
     64 H22        13.6364   -1.2302    9.3750 H         1 <0>         0.1337
     65 H23        13.9957    0.9204   10.3406 H         1 <0>         0.4337
     66 H24        11.8930   -0.5977   11.7167 H         1 <0>         0.1473
     67 H25        13.6347   -0.9623   11.7588 H         1 <0>         0.1393
     68 H26        11.9258   -0.3935   14.1640 H         1 <0>         0.0819
     69 H27        13.6869   -0.6236   14.2812 H         1 <0>         0.0764
     70 H28        12.5848   -1.4513   15.8504 H         1 <0>         0.1281
     71 H29        12.3190   -2.3172   18.1390 H         1 <0>         0.1350
     72 H30        12.7156    1.6465   19.6848 H         1 <0>         0.1419
     73 H31        12.9897    2.5113   17.3968 H         1 <0>         0.1389
     74 H32        13.1849   -1.1172   20.7447 H         1 <0>         0.3940
     75 H33        15.0982    0.7427   12.8254 H         1 <0>         0.3899
     76 H34        12.3834    1.2580   10.3015 H         1 <0>         0.4317
@<TRIPOS>BOND
     1    1    6 ar
     2    1    2 ar
     3    1   44 1
     4    2    3 ar
     5    2   45 1
     6    3    4 ar
     7    3   46 1
     8    4    5 ar
     9    4    7 1
    10    5    6 ar
    11    5   47 1
    12    6   48 1
    13    7    8 1
    14    7   49 1
    15    7   50 1
    16    8    9 1
    17    9   10 2
    18    9   11 am
    19   11   12 1
    20   11   51 1
    21   12   17 ar
    22   12   13 ar
    23   13   14 ar
    24   13   52 1
    25   14   15 ar
    26   14   53 1
    27   15   16 ar
    28   15   18 1
    29   16   17 ar
    30   16   54 1
    31   17   55 1
    32   18   19 2
    33   18   20 2
    34   18   21 1
    35   21   22 1
    36   21   56 1
    37   22   27 ar
    38   22   23 ar
    39   23   24 ar
    40   23   57 1
    41   24   25 ar
    42   24   58 1
    43   25   26 ar
    44   25   28 1
    45   26   27 ar
    46   26   59 1
    47   27   60 1
    48   28   29 1
    49   28   61 1
    50   28   62 1
    51   29   30 1
    52   29   63 1
    53   29   64 1
    54   30   31 1
    55   30   65 1
    56   30   76 1
    57   31   32 1
    58   31   66 1
    59   31   67 1
    60   32   33 1
    61   32   34 1
    62   32   43 1
    63   34   35 1
    64   34   68 1
    65   34   69 1
    66   35   36 1
    67   36   41 ar
    68   36   37 ar
    69   37   38 ar
    70   37   70 1
    71   38   39 ar
    72   38   71 1
    73   39   40 ar
    74   39   42 1
    75   40   41 ar
    76   40   72 1
    77   41   73 1
    78   42   74 1
    79   43   75 1
@<TRIPOS>MOLECULE
CHEMBL13132__1
   75    78     0     0     0
SMALL
USER_CHARGES

@<TRIPOS>ATOM
      1 C1          0.0631    2.3848    3.5120 C.ar      1 <0>        -0.1074
      2 C2          0.1113    1.2294    4.2693 C.ar      1 <0>        -0.1235
      3 C3          1.3308    0.6595    4.5838 C.ar      1 <0>        -0.0931
      4 C4          2.5020    1.2448    4.1406 C.ar      1 <0>        -0.1006
      5 C5          2.4538    2.3997    3.3825 C.ar      1 <0>        -0.0930
      6 C6          1.2344    2.9704    3.0692 C.ar      1 <0>        -0.1235
      7 C7          3.8316    0.6240    4.4842 C.3       1 <0>         0.1268
      8 O1          4.1965   -0.3129    3.4688 O.3       1 <0>        -0.3554
      9 C8          5.3670   -0.9597    3.6260 C.2       1 <0>         0.6491
     10 O2          6.0595   -0.7348    4.5988 O.2       1 <0>        -0.5458
     11 N1          5.7704   -1.8566    2.7044 N.am      1 <0>        -0.6500
     12 C9          7.0294   -2.4572    2.8167 C.ar      1 <0>         0.1928
     13 C10         7.7636   -2.7527    1.6757 C.ar      1 <0>        -0.1632
     14 C11         9.0058   -3.3456    1.7899 C.ar      1 <0>        -0.0042
     15 C12         9.5186   -3.6449    3.0388 C.ar      1 <0>        -0.6309
     16 C13         8.7899   -3.3518    4.1769 C.ar      1 <0>        -0.0036
     17 C14         7.5496   -2.7538    4.0697 C.ar      1 <0>        -0.1422
     18 S1         11.1034   -4.4017    3.1801 S.o2      1 <0>         2.6112
     19 O3         11.1211   -5.0766    4.4305 O.2       1 <0>        -1.0246
     20 O4         11.3453   -5.0705    1.9499 O.2       1 <0>        -1.0277
     21 N2         12.2203   -3.1834    3.2841 N.2       1 <0>        -1.0818
     22 C15        13.5777   -3.4889    3.4060 C.ar      1 <0>         0.2971
     23 C16        13.9932   -4.8142    3.4345 C.ar      1 <0>        -0.2652
     24 C17        15.3362   -5.1127    3.5546 C.ar      1 <0>        -0.0473
     25 C18        16.2670   -4.0942    3.6470 C.ar      1 <0>        -0.2377
     26 C19        15.8568   -2.7739    3.6190 C.ar      1 <0>        -0.0636
     27 C20        14.5159   -2.4682    3.4933 C.ar      1 <0>        -0.1813
     28 C21        17.7315   -4.4239    3.7791 C.3       1 <0>        -0.0710
     29 C22        18.3589   -4.5255    2.3873 C.3       1 <0>        -0.0110
     30 N3         19.7865   -4.8468    2.5160 N.4       1 <0>        -0.5039
     31 C23        20.3889   -4.9444    1.1797 C.3       1 <0>        -0.0418
     32 C24        21.8758   -5.2791    1.3138 C.3       1 <0>         0.0863
     33 H1         21.9886   -6.2305    1.8336 H         1 <0>         0.1348
     34 C25        22.5032   -5.3807   -0.0780 C.3       1 <0>         0.0285
     35 O5         23.8619   -5.8068    0.0420 O.3       1 <0>        -0.3012
     36 C26        24.5685   -5.9485   -1.1112 C.ar      1 <0>         0.1124
     37 C27        23.9668   -5.6771   -2.3310 C.ar      1 <0>        -0.1913
     38 C28        24.6846   -5.8211   -3.5024 C.ar      1 <0>        -0.1052
     39 C29        26.0072   -6.2366   -3.4586 C.ar      1 <0>         0.0763
     40 C30        26.6091   -6.5071   -2.2387 C.ar      1 <0>        -0.1035
     41 C31        25.8926   -6.3590   -1.0671 C.ar      1 <0>        -0.1279
     42 O6         26.7135   -6.3791   -4.6118 O.3       1 <0>        -0.4964
     43 O7         22.5306   -4.2495    2.0575 O.3       1 <0>        -0.5445
     44 H2         -0.8899    2.8276    3.2625 H         1 <0>         0.1252
     45 H3         -0.8038    0.7721    4.6156 H         1 <0>         0.1264
     46 H4          1.3684   -0.2428    5.1760 H         1 <0>         0.1254
     47 H5          3.3689    2.8572    3.0365 H         1 <0>         0.1254
     48 H6          1.1967    3.8729    2.4772 H         1 <0>         0.1264
     49 H7          4.5906    1.4036    4.5491 H         1 <0>         0.0811
     50 H8          3.7557    0.1101    5.4425 H         1 <0>         0.0810
     51 H9          5.1880   -2.0857    1.9633 H         1 <0>         0.4194
     52 H10         7.3636   -2.5196    0.7000 H         1 <0>         0.1341
     53 H11         9.5772   -3.5760    0.9028 H         1 <0>         0.1427
     54 H12         9.1929   -3.5871    5.1509 H         1 <0>         0.1420
     55 H13         6.9829   -2.5211    4.9591 H         1 <0>         0.1464
     56 H14        13.2667   -5.6101    3.3630 H         1 <0>         0.1017
     57 H15        15.6598   -6.1429    3.5768 H         1 <0>         0.1015
     58 H16        16.5863   -1.9808    3.6914 H         1 <0>         0.1040
     59 H17        14.1967   -1.4368    3.4670 H         1 <0>         0.1167
     60 H18        18.2310   -3.6385    4.3463 H         1 <0>         0.0806
     61 H19        17.8444   -5.3753    4.2988 H         1 <0>         0.0798
     62 H20        17.8594   -5.3109    1.8201 H         1 <0>         0.1313
     63 H21        18.2460   -3.5741    1.8676 H         1 <0>         0.1311
     64 H22        20.2489   -4.1198    3.0411 H         1 <0>         0.4300
     65 H23        19.8894   -5.7298    0.6125 H         1 <0>         0.1455
     66 H24        20.2760   -3.9930    0.6600 H         1 <0>         0.1381
     67 H25        21.9471   -6.1033   -0.6753 H         1 <0>         0.0827
     68 H26        22.4697   -4.4055   -0.5637 H         1 <0>         0.0770
     69 H27        22.9370   -5.3536   -2.3651 H         1 <0>         0.1303
     70 H28        24.2159   -5.6104   -4.4523 H         1 <0>         0.1348
     71 H29        27.6389   -6.8309   -2.2047 H         1 <0>         0.1401
     72 H30        26.3625   -6.5660   -0.1170 H         1 <0>         0.1382
     73 H31        27.1804   -5.5788   -4.8886 H         1 <0>         0.3922
     74 H32        22.4708   -3.3732    1.6528 H         1 <0>         0.3894
     75 H33        19.8910   -5.7276    2.9972 H         1 <0>         0.4278
@<TRIPOS>BOND
     1    1    6 ar
     2    1    2 ar
     3    1   44 1
     4    2    3 ar
     5    2   45 1
     6    3    4 ar
     7    3   46 1
     8    4    5 ar
     9    4    7 1
    10    5    6 ar
    11    5   47 1
    12    6   48 1
    13    7    8 1
    14    7   49 1
    15    7   50 1
    16    8    9 1
    17    9   10 2
    18    9   11 am
    19   11   12 1
    20   11   51 1
    21   12   17 ar
    22   12   13 ar
    23   13   14 ar
    24   13   52 1
    25   14   15 ar
    26   14   53 1
    27   15   16 ar
    28   15   18 1
    29   16   17 ar
    30   16   54 1
    31   17   55 1
    32   18   19 2
    33   18   20 2
    34   18   21 1
    35   21   22 1
    36   22   27 ar
    37   22   23 ar
    38   23   24 ar
    39   23   56 1
    40   24   25 ar
    41   24   57 1
    42   25   26 ar
    43   25   28 1
    44   26   27 ar
    45   26   58 1
    46   27   59 1
    47   28   29 1
    48   28   60 1
    49   28   61 1
    50   29   30 1
    51   29   62 1
    52   29   63 1
    53   30   31 1
    54   30   64 1
    55   30   75 1
    56   31   32 1
    57   31   65 1
    58   31   66 1
    59   32   33 1
    60   32   34 1
    61   32   43 1
    62   34   35 1
    63   34   67 1
    64   34   68 1
    65   35   36 1
    66   36   41 ar
    67   36   37 ar
    68   37   38 ar
    69   37   69 1
    70   38   39 ar
    71   38   70 1
    72   39   40 ar
    73   39   42 1
    74   40   41 ar
    75   40   71 1
    76   41   72 1
    77   42   73 1
    78   43   74 1
@<TRIPOS>MOLECULE
CHEMBL57185
   50    52     0     0     0
SMALL
USER_CHARGES

@<TRIPOS>ATOM
      1 C1         -0.0187    1.5258    0.0104 C.3       1 <0>        -0.1572
      2 C2          0.0021   -0.0041    0.0020 C.3       1 <0>        -0.1522
      3 C3          0.7421   -0.5109    1.2415 C.3       1 <0>        -0.0107
      4 N1          0.7620   -1.9797    1.2335 N.4       1 <0>        -0.5045
      5 C4          1.4725   -2.4664    2.4236 C.3       1 <0>        -0.0419
      6 C5          1.4932   -3.9962    2.4152 C.3       1 <0>         0.0854
      7 C6          2.1222   -4.5049    3.7138 C.3       1 <0>         0.0263
      8 O1          2.0363   -5.9306    3.7582 O.3       1 <0>        -0.2932
      9 C7          2.5523   -6.5453    4.8530 C.ar      1 <0>         0.1830
     10 C8          3.1257   -5.7822    5.8678 C.ar      1 <0>        -0.2357
     11 C9          3.6484   -6.3871    6.9754 C.ar      1 <0>         0.0136
     12 C10         3.6072   -7.7769    7.0897 C.ar      1 <0>        -0.2510
     13 C11         4.1608   -8.4653    8.2707 C.2       1 <0>         0.4235
     14 O2          4.6728   -7.8420    9.1860 O.2       1 <0>        -0.4660
     15 C12         4.0742   -9.8778    8.3003 C.2       1 <0>        -0.3129
     16 C13         3.4958  -10.5360    7.2608 C.2       1 <0>         0.2138
     17 O3          2.9959   -9.8982    6.1910 O.3       1 <0>        -0.2174
     18 C14         3.0308   -8.5547    6.0710 C.ar      1 <0>         0.1938
     19 C15         2.4993   -7.9255    4.9545 C.ar      1 <0>        -0.1725
     20 C16         3.4150  -12.0096    7.3105 C.ar      1 <0>        -0.0801
     21 C17         3.9211  -12.7032    8.4121 C.ar      1 <0>        -0.0781
     22 C18         3.8423  -14.0797    8.4519 C.ar      1 <0>        -0.1196
     23 C19         3.2636  -14.7734    7.4038 C.ar      1 <0>        -0.0888
     24 C20         2.7606  -14.0927    6.3091 C.ar      1 <0>        -0.1230
     25 C21         2.8271  -12.7158    6.2589 C.ar      1 <0>        -0.0789
     26 O4          2.2618   -4.4560    1.3017 O.3       1 <0>        -0.5426
     27 H1          1.0039    1.9031    0.0027 H         1 <0>         0.0675
     28 H2         -0.5459    1.8868   -0.8726 H         1 <0>         0.0789
     29 H3         -0.5289    1.8773    0.9072 H         1 <0>         0.0675
     30 H4         -1.0205   -0.3814    0.0098 H         1 <0>         0.0877
     31 H5          0.5123   -0.3556   -0.8948 H         1 <0>         0.0878
     32 H6          1.7647   -0.1336    1.2338 H         1 <0>         0.1324
     33 H7          0.2319   -0.1594    2.1383 H         1 <0>         0.1329
     34 H8         -0.1846   -2.3290    1.2406 H         1 <0>         0.4308
     35 H9          2.4951   -2.0891    2.4158 H         1 <0>         0.1410
     36 H10         0.9623   -2.1149    3.3204 H         1 <0>         0.1472
     37 H11         0.4737   -4.3730    2.3333 H         1 <0>         0.1364
     38 H12         3.1686   -4.2025    3.7535 H         1 <0>         0.0829
     39 H13         1.5893   -4.0821    4.5656 H         1 <0>         0.0874
     40 H14         3.1574   -4.7064    5.7781 H         1 <0>         0.1377
     41 H15         4.0923   -5.7917    7.7595 H         1 <0>         0.1494
     42 H16         4.4651  -10.4289    9.1429 H         1 <0>         0.1658
     43 H17         2.0495   -8.5102    4.1656 H         1 <0>         0.1547
     44 H18         4.3734  -12.1630    9.2306 H         1 <0>         0.1366
     45 H19         4.2336  -14.6173    9.3029 H         1 <0>         0.1364
     46 H20         3.2045  -15.8512    7.4401 H         1 <0>         0.1327
     47 H21         2.3105  -14.6404    5.4943 H         1 <0>         0.1335
     48 H22         2.4294  -12.1855    5.4062 H         1 <0>         0.1340
     49 H23         3.1818   -4.1582    1.3089 H         1 <0>         0.3915
     50 H24         1.2343   -2.3051    0.4033 H         1 <0>         0.4340
@<TRIPOS>BOND
     1    1    2 1
     2    1   27 1
     3    1   28 1
     4    1   29 1
     5    2    3 1
     6    2   30 1
     7    2   31 1
     8    3    4 1
     9    3   32 1
    10    3   33 1
    11    4    5 1
    12    4   34 1
    13    4   50 1
    14    5    6 1
    15    5   35 1
    16    5   36 1
    17    6    7 1
    18    6   26 1
    19    6   37 1
    20    7    8 1
    21    7   38 1
    22    7   39 1
    23    8    9 1
    24    9   19 ar
    25    9   10 ar
    26   10   11 ar
    27   10   40 1
    28   11   12 ar
    29   11   41 1
    30   12   18 ar
    31   12   13 1
    32   13   14 2
    33   13   15 1
    34   15   16 2
    35   15   42 1
    36   16   17 1
    37   16   20 1
    38   17   18 1
    39   18   19 ar
    40   19   43 1
    41   20   25 ar
    42   20   21 ar
    43   21   22 ar
    44   21   44 1
    45   22   23 ar
    46   22   45 1
    47   23   24 ar
    48   23   46 1
    49   24   25 ar
    50   24   47 1
    51   25   48 1
    52   26   49 1
@<TRIPOS>MOLECULE
CHEMBL57185__1
   50    52     0     0     0
SMALL
USER_CHARGES

@<TRIPOS>ATOM
      1 C1         -0.0187    1.5258    0.0104 C.3       1 <0>        -0.1572
      2 C2          0.0021   -0.0041    0.0020 C.3       1 <0>        -0.1522
      3 C3          0.7421   -0.5109    1.2415 C.3       1 <0>        -0.0106
      4 N1          0.7620   -1.9797    1.2335 N.4       1 <0>        -0.5039
      5 C4          1.4725   -2.4664    2.4236 C.3       1 <0>        -0.0421
      6 C5          1.4932   -3.9962    2.4152 C.3       1 <0>         0.0852
      7 C6          2.2332   -4.5030    3.6547 C.3       1 <0>         0.0263
      8 O1          2.3545   -5.9254    3.5887 O.3       1 <0>        -0.2931
      9 C7          2.9910   -6.5381    4.6193 C.ar      1 <0>         0.1829
     10 C8          3.4836   -5.7772    5.6773 C.ar      1 <0>        -0.2357
     11 C9          4.1258   -6.3802    6.7213 C.ar      1 <0>         0.0136
     12 C10         4.2885   -7.7658    6.7267 C.ar      1 <0>        -0.2510
     13 C11         4.9757   -8.4522    7.8366 C.2       1 <0>         0.4235
     14 O2          5.4243   -7.8309    8.7859 O.2       1 <0>        -0.4660
     15 C12         5.0939   -9.8604    7.7570 C.2       1 <0>        -0.3129
     16 C13         4.5804  -10.5167    6.6827 C.2       1 <0>         0.2138
     17 O3          3.9574   -9.8807    5.6784 O.3       1 <0>        -0.2174
     18 C14         3.7949   -8.5413    5.6638 C.ar      1 <0>         0.1938
     19 C15         3.1402   -7.9150    4.6130 C.ar      1 <0>        -0.1725
     20 C16         4.7138  -11.9859    6.6182 C.ar      1 <0>        -0.0801
     21 C17         5.3520  -12.6784    7.6495 C.ar      1 <0>        -0.0781
     22 C18         5.4731  -14.0508    7.5827 C.ar      1 <0>        -0.1196
     23 C19         4.9641  -14.7414    6.4971 C.ar      1 <0>        -0.0888
     24 C20         4.3310  -14.0617    5.4714 C.ar      1 <0>        -0.1230
     25 C21         4.1973  -12.6900    5.5282 C.ar      1 <0>        -0.0789
     26 O4          0.1526   -4.4908    2.4253 O.3       1 <0>        -0.5431
     27 H1          1.0039    1.9031    0.0027 H         1 <0>         0.0676
     28 H2         -0.5459    1.8868   -0.8726 H         1 <0>         0.0789
     29 H3         -0.5289    1.8773    0.9072 H         1 <0>         0.0674
     30 H4         -1.0205   -0.3814    0.0098 H         1 <0>         0.0877
     31 H5          0.5123   -0.3556   -0.8948 H         1 <0>         0.0877
     32 H6          1.7647   -0.1336    1.2338 H         1 <0>         0.1330
     33 H7          0.2319   -0.1594    2.1383 H         1 <0>         0.1323
     34 H8         -0.1846   -2.3290    1.2406 H         1 <0>         0.4335
     35 H9          2.4951   -2.0891    2.4158 H         1 <0>         0.1477
     36 H10         0.9623   -2.1149    3.3204 H         1 <0>         0.1404
     37 H11         2.0034   -4.3477    1.5184 H         1 <0>         0.1373
     38 H12         3.2262   -4.0551    3.6935 H         1 <0>         0.0877
     39 H13         1.6749   -4.2271    4.5493 H         1 <0>         0.0826
     40 H14         3.3574   -4.7046    5.6719 H         1 <0>         0.1377
     41 H15         4.5064   -5.7866    7.5392 H         1 <0>         0.1494
     42 H16         5.5888  -10.4098    8.5441 H         1 <0>         0.1658
     43 H17         2.7521   -8.4985    3.7913 H         1 <0>         0.1547
     44 H18         5.7501  -12.1405    8.4973 H         1 <0>         0.1366
     45 H19         5.9667  -14.5875    8.3794 H         1 <0>         0.1365
     46 H20         5.0617  -15.8160    6.4498 H         1 <0>         0.1327
     47 H21         3.9363  -14.6070    4.6269 H         1 <0>         0.1335
     48 H22         3.6984  -12.1612    4.7295 H         1 <0>         0.1340
     49 H23        -0.3619   -4.2167    3.1968 H         1 <0>         0.3911
     50 H24         1.2343   -2.3051    0.4033 H         1 <0>         0.4311
@<TRIPOS>BOND
     1    1    2 1
     2    1   27 1
     3    1   28 1
     4    1   29 1
     5    2    3 1
     6    2   30 1
     7    2   31 1
     8    3    4 1
     9    3   32 1
    10    3   33 1
    11    4    5 1
    12    4   34 1
    13    4   50 1
    14    5    6 1
    15    5   35 1
    16    5   36 1
    17    6    7 1
    18    6   26 1
    19    6   37 1
    20    7    8 1
    21    7   38 1
    22    7   39 1
    23    8    9 1
    24    9   19 ar
    25    9   10 ar
    26   10   11 ar
    27   10   40 1
    28   11   12 ar
    29   11   41 1
    30   12   18 ar
    31   12   13 1
    32   13   14 2
    33   13   15 1
    34   15   16 2
    35   15   42 1
    36   16   17 1
    37   16   20 1
    38   17   18 1
    39   18   19 ar
    40   19   43 1
    41   20   25 ar
    42   20   21 ar
    43   21   22 ar
    44   21   44 1
    45   22   23 ar
    46   22   45 1
    47   23   24 ar
    48   23   46 1
    49   24   25 ar
    50   24   47 1
    51   25   48 1
    52   26   49 1
@<TRIPOS>MOLECULE
CHEMBL199824
   61    64     0     0     0
SMALL
USER_CHARGES

@<TRIPOS>ATOM
      1 C1         -0.0178    1.4608    0.0101 C.3       1 <0>         0.0742
      2 N1          0.0021   -0.0041    0.0020 N.am      1 <0>        -0.5564
      3 C2          0.0057   -0.6719   -1.1702 C.2       1 <0>         0.5085
      4 O1         -0.0075   -0.0650   -2.2251 O.2       1 <0>        -0.4673
      5 C3          0.0262   -2.1374   -1.1574 C.2       1 <0>         0.0628
      6 N2          0.0404   -2.7607   -0.0121 N.2       1 <0>        -0.1775
      7 N3          0.0360   -2.0278    1.1807 N.am      1 <0>        -0.4524
      8 C4          0.0223   -0.6831    1.1643 C.2       1 <0>         0.6787
      9 O2          0.0240   -0.0714    2.2152 O.2       1 <0>        -0.5324
     10 C5          0.0515   -2.7350    2.4636 C.3       1 <0>         0.1442
     11 C6         -1.3854   -3.0007    2.9169 C.3       1 <0>        -0.1364
     12 C7         -1.3692   -3.7393    4.2568 C.3       1 <0>        -0.1441
     13 C8         -2.8061   -4.0050    4.7101 C.3       1 <0>        -0.0091
     14 N4         -2.7905   -4.7141    5.9965 N.4       1 <0>        -0.3795
     15 C9         -2.1781   -6.0366    5.8170 C.3       1 <0>        -0.0321
     16 C10        -2.0569   -6.7311    7.1775 C.3       1 <0>         0.1205
     17 N5         -3.3860   -6.7578    7.8075 N.pl3     1 <0>        -0.6702
     18 C11        -4.1433   -5.4989    7.8819 C.3       1 <0>         0.1201
     19 C12        -4.1661   -4.8626    6.4883 C.3       1 <0>        -0.0265
     20 C13        -3.9130   -7.9428    8.3190 C.ar      1 <0>         0.1376
     21 C14        -3.6849   -8.2957    9.6317 C.ar      1 <0>        -0.0882
     22 C15        -4.2070   -9.4762   10.1522 C.ar      1 <0>        -0.1271
     23 C16        -4.9554  -10.3134    9.3823 C.ar      1 <0>        -0.0763
     24 C17        -5.2115   -9.9906    8.0386 C.ar      1 <0>        -0.0815
     25 C18        -4.6900   -8.7890    7.4988 C.ar      1 <0>        -0.0107
     26 C19        -4.9499   -8.4644    6.1586 C.ar      1 <0>        -0.1680
     27 C20        -5.7056   -9.3071    5.3937 C.ar      1 <0>         0.1421
     28 C21        -6.2244  -10.4896    5.9292 C.ar      1 <0>        -0.1930
     29 C22        -5.9809  -10.8375    7.2214 C.ar      1 <0>        -0.0515
     30 O3         -5.9567   -8.9915    4.0957 O.3       1 <0>        -0.3217
     31 C23        -6.7529   -9.9118    3.3466 C.3       1 <0>         0.0236
     32 H1         -6.2588  -10.8831    3.3216 H         1 <0>         0.0604
     33 H2         -7.7306  -10.0136    3.8177 H         1 <0>         0.0602
     34 H3         -6.8766   -9.5408    2.3292 H         1 <0>         0.1051
     35 H4          1.0048    1.8381    0.0023 H         1 <0>         0.0809
     36 H5         -0.5450    1.8219   -0.8730 H         1 <0>         0.0985
     37 H6         -0.5280    1.8123    0.9069 H         1 <0>         0.0965
     38 H7          0.0291   -2.6932   -2.0834 H         1 <0>         0.2276
     39 H8          0.5778   -3.6827    2.3497 H         1 <0>         0.1042
     40 H9          0.5606   -2.1240    3.2091 H         1 <0>         0.1065
     41 H10        -1.9116   -2.0530    3.0308 H         1 <0>         0.0810
     42 H11        -1.8944   -3.6117    2.1714 H         1 <0>         0.0833
     43 H12        -0.8429   -4.6870    4.1429 H         1 <0>         0.0926
     44 H13        -0.8601   -3.1283    5.0022 H         1 <0>         0.0933
     45 H14        -3.3323   -3.0573    4.8240 H         1 <0>         0.1321
     46 H15        -3.3151   -4.6160    3.9646 H         1 <0>         0.1302
     47 H16        -2.8010   -6.6388    5.1557 H         1 <0>         0.1310
     48 H17        -1.1871   -5.9216    5.3780 H         1 <0>         0.1390
     49 H18        -1.6972   -7.7505    7.0376 H         1 <0>         0.1159
     50 H19        -1.3626   -6.1783    7.8103 H         1 <0>         0.0804
     51 H20        -5.1631   -5.7037    8.2078 H         1 <0>         0.1161
     52 H21        -3.6598   -4.8217    8.5860 H         1 <0>         0.0805
     53 H22        -4.6399   -3.8825    6.5439 H         1 <0>         0.1374
     54 H23        -4.7289   -5.5003    5.8067 H         1 <0>         0.1306
     55 H24        -3.0940   -7.6490   10.2635 H         1 <0>         0.1267
     56 H25        -4.0150   -9.7326   11.1836 H         1 <0>         0.1307
     57 H26        -5.3519  -11.2253    9.8038 H         1 <0>         0.1331
     58 H27        -4.5550   -7.5532    5.7342 H         1 <0>         0.1200
     59 H28        -6.8195  -11.1404    5.3056 H         1 <0>         0.1352
     60 H29        -6.3877  -11.7544    7.6218 H         1 <0>         0.1381
     61 H30        -2.2511   -4.1843    6.6647 H         1 <0>         0.4222
@<TRIPOS>BOND
     1    1    2 1
     2    1   35 1
     3    1   36 1
     4    1   37 1
     5    2    8 am
     6    2    3 am
     7    3    4 2
     8    3    5 1
     9    5    6 2
    10    5   38 1
    11    6    7 1
    12    7    8 am
    13    7   10 1
    14    8    9 2
    15   10   11 1
    16   10   39 1
    17   10   40 1
    18   11   12 1
    19   11   41 1
    20   11   42 1
    21   12   13 1
    22   12   43 1
    23   12   44 1
    24   13   14 1
    25   13   45 1
    26   13   46 1
    27   14   19 1
    28   14   15 1
    29   14   61 1
    30   15   16 1
    31   15   47 1
    32   15   48 1
    33   16   17 1
    34   16   49 1
    35   16   50 1
    36   17   18 1
    37   17   20 1
    38   18   19 1
    39   18   51 1
    40   18   52 1
    41   19   53 1
    42   19   54 1
    43   20   25 ar
    44   20   21 ar
    45   21   22 ar
    46   21   55 1
    47   22   23 ar
    48   22   56 1
    49   23   24 ar
    50   23   57 1
    51   24   29 ar
    52   24   25 ar
    53   25   26 ar
    54   26   27 ar
    55   26   58 1
    56   27   28 ar
    57   27   30 1
    58   28   29 ar
    59   28   59 1
    60   29   60 1
    61   30   31 1
    62   31   32 1
    63   31   33 1
    64   31   34 1
@<TRIPOS>MOLECULE
CHEMBL564556
   66    69     0     0     0
SMALL
USER_CHARGES

@<TRIPOS>ATOM
      1 C1         10.3445   -3.1273   -1.6708 C.ar      1 <0>        -0.1191
      2 C2          9.1936   -2.9958   -0.8958 C.ar      1 <0>        -0.1106
      3 C3          8.5106   -1.8196   -0.8493 C.ar      1 <0>        -0.1127
      4 C4          8.9704   -0.7187   -1.5924 C.ar      1 <0>        -0.0322
      5 C5         10.1411   -0.8523   -2.3802 C.ar      1 <0>        -0.0524
      6 C6         10.8192   -2.0832   -2.4033 C.ar      1 <0>        -0.1004
      7 C7         10.6010    0.2482   -3.1227 C.ar      1 <0>        -0.0980
      8 C8          9.9182    1.4250   -3.0759 C.ar      1 <0>        -0.1161
      9 C9          8.7676    1.5564   -2.3011 C.ar      1 <0>        -0.0965
     10 C10         8.2924    0.5117   -1.5692 C.ar      1 <0>        -0.0663
     11 C11         7.0456    0.6740   -0.7383 C.3       1 <0>        -0.1021
     12 C12         7.4272    1.0236    0.6771 C.2       1 <0>         0.5176
     13 O1          8.5964    1.1304    0.9812 O.2       1 <0>        -0.5013
     14 N1          6.4691    1.2175    1.6049 N.am      1 <0>        -0.6808
     15 C13         6.8234    1.4464    2.9391 C.ar      1 <0>         0.1672
     16 C14         6.0320    0.9462    3.9648 C.ar      1 <0>        -0.1432
     17 C15         6.3844    1.1739    5.2807 C.ar      1 <0>        -0.0875
     18 C16         7.5238    1.8992    5.5773 C.ar      1 <0>        -0.1283
     19 C17         8.3136    2.3990    4.5582 C.ar      1 <0>        -0.0878
     20 C18         7.9701    2.1695    3.2403 C.ar      1 <0>        -0.1185
     21 C19         7.9053    2.1457    7.0142 C.3       1 <0>        -0.0970
     22 C20         8.8083    1.0119    7.5039 C.3       1 <0>        -0.0076
     23 N2          9.1802    1.2523    8.9046 N.4       1 <0>        -0.5036
     24 C21        10.0472    0.1636    9.3748 C.3       1 <0>        -0.0420
     25 C22        10.4345    0.4139   10.8336 C.3       1 <0>         0.0859
     26 H1          9.5344    0.4523   11.4471 H         1 <0>         0.1362
     27 C23        11.3376   -0.7199   11.3233 C.3       1 <0>         0.0288
     28 O2         11.6045   -0.5483   12.7166 O.3       1 <0>        -0.3011
     29 C24        12.3983   -1.4780   13.3122 C.ar      1 <0>         0.1088
     30 C25        12.9131   -2.5293   12.5683 C.ar      1 <0>        -0.1914
     31 C26        13.7195   -3.4737   13.1733 C.ar      1 <0>        -0.1061
     32 C27        14.0146   -3.3704   14.5246 C.ar      1 <0>         0.0803
     33 C28        13.5004   -2.3186   15.2683 C.ar      1 <0>        -0.1027
     34 C29        12.6976   -1.3718   14.6623 C.ar      1 <0>        -0.1260
     35 O3         14.8076   -4.3006   15.1204 O.3       1 <0>        -0.4957
     36 O4         11.1330    1.6565   10.9345 O.3       1 <0>        -0.5435
     37 H2         10.8700   -4.0706   -1.6868 H         1 <0>         0.1247
     38 H3          8.8382   -3.8401   -0.3238 H         1 <0>         0.1220
     39 H4          7.6199   -1.7326   -0.2448 H         1 <0>         0.1183
     40 H5         11.7125   -2.1997   -2.9990 H         1 <0>         0.1293
     41 H6         11.4917    0.1612   -3.7272 H         1 <0>         0.1296
     42 H7         10.2738    2.2694   -3.6476 H         1 <0>         0.1268
     43 H8          8.2448    2.5012   -2.2812 H         1 <0>         0.1225
     44 H9          6.4315    1.4714   -1.1566 H         1 <0>         0.1124
     45 H10         6.4820   -0.2590   -0.7428 H         1 <0>         0.1109
     46 H11         5.5340    1.1984    1.3478 H         1 <0>         0.4162
     47 H12         5.1418    0.3800    3.7338 H         1 <0>         0.1325
     48 H13         5.7692    0.7855    6.0788 H         1 <0>         0.1284
     49 H14         9.2027    2.9653    4.7931 H         1 <0>         0.1273
     50 H15         8.5902    2.5557    2.4449 H         1 <0>         0.1450
     51 H16         8.4381    3.0936    7.0912 H         1 <0>         0.0962
     52 H17         7.0051    2.1841    7.6277 H         1 <0>         0.0962
     53 H18         8.2756    0.0641    7.4270 H         1 <0>         0.1343
     54 H19         9.7085    0.9736    6.8904 H         1 <0>         0.1339
     55 H20         9.6734    2.1296    8.9758 H         1 <0>         0.4335
     56 H21         9.5144   -0.7842    9.2978 H         1 <0>         0.1471
     57 H22        10.9474    0.1253    8.7613 H         1 <0>         0.1399
     58 H23        10.8390   -1.6760   11.1639 H         1 <0>         0.0820
     59 H24        12.2758   -0.7024   10.7688 H         1 <0>         0.0769
     60 H25        12.6834   -2.6097   11.5161 H         1 <0>         0.1285
     61 H26        14.1198   -4.2927   12.5942 H         1 <0>         0.1352
     62 H27        13.7300   -2.2383   16.3206 H         1 <0>         0.1418
     63 H28        12.3003   -0.5507   15.2406 H         1 <0>         0.1388
     64 H29        15.7501   -4.0851   15.0999 H         1 <0>         0.3940
     65 H30        11.9464    1.6940   10.4129 H         1 <0>         0.3903
     66 H31         8.3469    1.2877    9.4725 H         1 <0>         0.4309
@<TRIPOS>BOND
     1    1    6 ar
     2    1    2 ar
     3    1   37 1
     4    2    3 ar
     5    2   38 1
     6    3    4 ar
     7    3   39 1
     8    4   10 ar
     9    4    5 ar
    10    5    6 ar
    11    5    7 ar
    12    6   40 1
    13    7    8 ar
    14    7   41 1
    15    8    9 ar
    16    8   42 1
    17    9   10 ar
    18    9   43 1
    19   10   11 1
    20   11   12 1
    21   11   44 1
    22   11   45 1
    23   12   13 2
    24   12   14 am
    25   14   15 1
    26   14   46 1
    27   15   20 ar
    28   15   16 ar
    29   16   17 ar
    30   16   47 1
    31   17   18 ar
    32   17   48 1
    33   18   19 ar
    34   18   21 1
    35   19   20 ar
    36   19   49 1
    37   20   50 1
    38   21   22 1
    39   21   51 1
    40   21   52 1
    41   22   23 1
    42   22   53 1
    43   22   54 1
    44   23   24 1
    45   23   55 1
    46   23   66 1
    47   24   25 1
    48   24   56 1
    49   24   57 1
    50   25   26 1
    51   25   27 1
    52   25   36 1
    53   27   28 1
    54   27   58 1
    55   27   59 1
    56   28   29 1
    57   29   34 ar
    58   29   30 ar
    59   30   31 ar
    60   30   60 1
    61   31   32 ar
    62   31   61 1
    63   32   33 ar
    64   32   35 1
    65   33   34 ar
    66   33   62 1
    67   34   63 1
    68   35   64 1
    69   36   65 1
@<TRIPOS>MOLECULE
CHEMBL127451
   60    62     0     0     0
SMALL
USER_CHARGES

@<TRIPOS>ATOM
      1 C1         -2.6547   -3.3483    3.3667 C.ar      1 <0>        -0.0929
      2 C2         -3.4663   -4.3626    2.8813 C.ar      1 <0>        -0.1418
      3 C3         -3.0589   -5.1368    1.7862 C.ar      1 <0>        -0.1131
      4 C4         -1.8346   -4.8889    1.1813 C.ar      1 <0>        -0.0970
      5 C5         -1.0108   -3.8535    1.6801 C.ar      1 <0>         0.1698
      6 C6         -1.4474   -3.0872    2.7875 C.ar      1 <0>        -0.1795
      7 N1          0.1699   -3.6006    1.1111 N.2       1 <0>        -0.5998
      8 C7          0.4397   -2.3806    0.6517 C.2       1 <0>         0.5411
      9 C8          1.7284   -2.0654    0.2269 C.2       1 <0>        -0.3979
     10 N2          2.2617   -0.8147    0.4988 N.pl3     1 <0>         0.1703
     11 O1          1.7901   -0.1352    1.3806 O.2       1 <0>        -0.3540
     12 O2          3.1981   -0.4036   -0.1459 O.3       1 <0>        -0.3531
     13 N3         -0.5591   -1.4263    0.5962 N.pl3     1 <0>        -0.6879
     14 C9         -0.5801   -0.4985   -0.4449 C.ar      1 <0>         0.2312
     15 C10         0.2458   -0.6720   -1.5498 C.ar      1 <0>        -0.1664
     16 C11         0.2223    0.2486   -2.5784 C.ar      1 <0>        -0.0647
     17 C12        -0.6212    1.3429   -2.5104 C.ar      1 <0>        -0.1714
     18 C13        -1.4440    1.5192   -1.4124 C.ar      1 <0>        -0.0702
     19 C14        -1.4310    0.5994   -0.3830 C.ar      1 <0>        -0.1782
     20 C15        -0.6434    2.3457   -3.6350 C.3       1 <0>        -0.0852
     21 C16        -1.6879    1.9266   -4.6715 C.3       1 <0>        -0.0086
     22 N4         -1.7095    2.9042   -5.7678 N.4       1 <0>        -0.5052
     23 C17        -2.7123    2.5018   -6.7630 C.3       1 <0>        -0.0425
     24 C18        -2.7349    3.5199   -7.9048 C.3       1 <0>         0.1406
     25 H1         -1.7523    3.5604   -8.3749 H         1 <0>         0.1338
     26 C19        -3.7636    3.1071   -8.9257 C.ar      1 <0>        -0.1965
     27 C20        -3.3924    2.3624  -10.0351 C.ar      1 <0>        -0.0549
     28 C21        -4.3725    2.0053  -10.9481 C.ar      1 <0>        -0.1648
     29 C22        -5.6780    2.4004  -10.7239 C.ar      1 <0>         0.1196
     30 N5         -5.9946    3.1086   -9.6577 N.ar      1 <0>        -0.4760
     31 C23        -5.0897    3.4609   -8.7653 C.ar      1 <0>         0.1167
     32 O3         -3.0686    4.8092   -7.3868 O.3       1 <0>        -0.5463
     33 C24        -3.9318   -6.2165    1.2766 C.2       1 <0>         0.5643
     34 O4         -3.5775   -6.8873    0.3269 O.2       1 <0>        -0.5415
     35 N6         -5.1203   -6.4566    1.8652 N.am      1 <0>        -0.8527
     36 H2         -2.9834   -2.7567    4.2084 H         1 <0>         0.1225
     37 H3         -4.4193   -4.5575    3.3507 H         1 <0>         0.1181
     38 H4         -1.5138   -5.4816    0.3373 H         1 <0>         0.1330
     39 H5         -0.8239   -2.2947    3.1743 H         1 <0>         0.1220
     40 H6          2.3122   -2.7953   -0.3143 H         1 <0>         0.1589
     41 H7         -1.2454   -1.4021    1.2813 H         1 <0>         0.4051
     42 H8          0.9051   -1.5258   -1.6033 H         1 <0>         0.1494
     43 H9          0.8635    0.1145   -3.4370 H         1 <0>         0.1203
     44 H10        -2.1009    2.3750   -1.3627 H         1 <0>         0.1188
     45 H11        -2.0772    0.7352    0.4716 H         1 <0>         0.1230
     46 H12        -0.8979    3.3292   -3.2399 H         1 <0>         0.0892
     47 H13         0.3392    2.3862   -4.1052 H         1 <0>         0.0907
     48 H14        -1.4333    0.9432   -5.0666 H         1 <0>         0.1328
     49 H15        -2.6704    1.8861   -4.2014 H         1 <0>         0.1314
     50 H16        -1.9451    3.8146   -5.4020 H         1 <0>         0.4307
     51 H17        -2.4578    1.5183   -7.1581 H         1 <0>         0.1439
     52 H18        -3.6949    2.4613   -6.2928 H         1 <0>         0.1363
     53 H19        -2.3641    2.0681  -10.1844 H         1 <0>         0.1416
     54 H20        -4.1193    1.4259  -11.8236 H         1 <0>         0.1461
     55 H21        -6.4475    2.1262  -11.4304 H         1 <0>         0.1657
     56 H22        -5.3878    4.0367   -7.9015 H         1 <0>         0.1534
     57 H23        -3.9321    4.8475   -6.9533 H         1 <0>         0.3892
     58 H24        -5.4031   -5.9213    2.6231 H         1 <0>         0.4010
     59 H25        -5.6928   -7.1647    1.5309 H         1 <0>         0.4027
     60 H26        -0.8000    2.9417   -6.2030 H         1 <0>         0.4287
@<TRIPOS>BOND
     1    1    6 ar
     2    1    2 ar
     3    1   36 1
     4    2    3 ar
     5    2   37 1
     6    3    4 ar
     7    3   33 1
     8    4    5 ar
     9    4   38 1
    10    5    6 ar
    11    5    7 1
    12    6   39 1
    13    7    8 2
    14    8   13 1
    15    8    9 1
    16    9   10 1
    17    9   40 1
    18   10   11 2
    19   10   12 1
    20   13   14 1
    21   13   41 1
    22   14   19 ar
    23   14   15 ar
    24   15   16 ar
    25   15   42 1
    26   16   17 ar
    27   16   43 1
    28   17   18 ar
    29   17   20 1
    30   18   19 ar
    31   18   44 1
    32   19   45 1
    33   20   21 1
    34   20   46 1
    35   20   47 1
    36   21   22 1
    37   21   48 1
    38   21   49 1
    39   22   23 1
    40   22   50 1
    41   22   60 1
    42   23   24 1
    43   23   51 1
    44   23   52 1
    45   24   25 1
    46   24   26 1
    47   24   32 1
    48   26   31 ar
    49   26   27 ar
    50   27   28 ar
    51   27   53 1
    52   28   29 ar
    53   28   54 1
    54   29   30 ar
    55   29   55 1
    56   30   31 ar
    57   31   56 1
    58   32   57 1
    59   33   34 2
    60   33   35 am
    61   35   58 1
    62   35   59 1
@<TRIPOS>MOLECULE
CHEMBL127451__1
   61    63     0     0     0
SMALL
USER_CHARGES

@<TRIPOS>ATOM
      1 C1         -2.0241    0.5428   -1.1101 C.ar      1 <0>        -0.0994
      2 C2         -1.1560    1.6039   -1.2746 C.ar      1 <0>        -0.0918
      3 C3          0.2238    1.3948   -1.2279 C.ar      1 <0>        -0.1164
      4 C4          0.7240    0.1117   -1.0142 C.ar      1 <0>        -0.0555
      5 C5         -0.1575   -0.9540   -0.8486 C.ar      1 <0>         0.0889
      6 C6         -1.5352   -0.7308   -0.8981 C.ar      1 <0>        -0.1376
      7 N1          0.3267   -2.2201   -0.6379 N.2       1 <0>        -0.5184
      8 C7          0.0430   -2.8504    0.4660 C.2       1 <0>         0.4112
      9 C8         -0.8344   -2.1971    1.5025 C.3       1 <0>        -0.0224
     10 N2         -0.9873   -3.0958    2.6494 N.pl3     1 <0>        -0.0181
     11 O1         -0.0105   -3.5767    3.1750 O.2       1 <0>        -0.1636
     12 O2         -2.0903   -3.3564    3.0703 O.3       1 <0>        -0.1170
     13 N3          0.5420   -4.1066    0.6847 N.pl3     1 <0>        -0.6428
     14 C9          1.4442   -4.6682   -0.2236 C.ar      1 <0>         0.1762
     15 C10         2.3667   -3.8615   -0.8775 C.ar      1 <0>        -0.1058
     16 C11         3.2569   -4.4196   -1.7738 C.ar      1 <0>        -0.0867
     17 C12         3.2302   -5.7800   -2.0209 C.ar      1 <0>        -0.1253
     18 C13         2.3128   -6.5859   -1.3719 C.ar      1 <0>        -0.0851
     19 C14         1.4239   -6.0352   -0.4698 C.ar      1 <0>        -0.1410
     20 C15         4.2028   -6.3855   -3.0000 C.3       1 <0>        -0.0973
     21 C16         5.4761   -6.8031   -2.2618 C.3       1 <0>        -0.0076
     22 N4          6.4242   -7.3933   -3.2161 N.4       1 <0>        -0.5055
     23 C17         7.6468   -7.7944   -2.5074 C.3       1 <0>        -0.0426
     24 C18         8.6342   -8.4091   -3.5014 C.3       1 <0>         0.1415
     25 H1          8.8828   -7.6749   -4.2677 H         1 <0>         0.1338
     26 C19         9.8884   -8.8205   -2.7742 C.ar      1 <0>        -0.2003
     27 C20        10.9804   -7.9675   -2.7201 C.ar      1 <0>        -0.0549
     28 C21        12.1130   -8.3880   -2.0402 C.ar      1 <0>        -0.1641
     29 C22        12.1161   -9.6346   -1.4430 C.ar      1 <0>         0.1224
     30 N5         11.0592  -10.4197   -1.5153 N.ar      1 <0>        -0.4749
     31 C23         9.9628  -10.0501   -2.1482 C.ar      1 <0>         0.1172
     32 O3          8.0413   -9.5556   -4.1145 O.3       1 <0>        -0.5461
     33 C24         1.1521    2.5321   -1.4051 C.2       1 <0>         0.5629
     34 O4          2.3529    2.3485   -1.3642 O.2       1 <0>        -0.5362
     35 N6          0.6667    3.7722   -1.6121 N.am      1 <0>        -0.8465
     36 H2         -3.0905    0.7106   -1.1430 H         1 <0>         0.1393
     37 H3         -1.5450    2.5977   -1.4401 H         1 <0>         0.1340
     38 H4          1.7903   -0.0556   -0.9775 H         1 <0>         0.1420
     39 H5         -2.2197   -1.5563   -0.7699 H         1 <0>         0.1284
     40 H6         -0.3762   -1.2641    1.8305 H         1 <0>         0.1678
     41 H7         -1.8134   -1.9891    1.0709 H         1 <0>         0.1662
     42 H8          0.2695   -4.6067    1.4698 H         1 <0>         0.4251
     43 H9          2.3876   -2.7989   -0.6855 H         1 <0>         0.1422
     44 H10         3.9744   -3.7929   -2.2826 H         1 <0>         0.1280
     45 H11         2.2944   -7.6479   -1.5675 H         1 <0>         0.1294
     46 H12         0.7106   -6.6658    0.0400 H         1 <0>         0.1316
     47 H13         3.7505   -7.2600   -3.4677 H         1 <0>         0.0960
     48 H14         4.4513   -5.6513   -3.7663 H         1 <0>         0.0959
     49 H15         5.9284   -5.9286   -1.7941 H         1 <0>         0.1339
     50 H16         5.2276   -7.5373   -1.4954 H         1 <0>         0.1337
     51 H17         6.0055   -8.2029   -3.6491 H         1 <0>         0.4324
     52 H18         8.0991   -6.9199   -2.0396 H         1 <0>         0.1446
     53 H19         7.3982   -8.5286   -1.7410 H         1 <0>         0.1378
     54 H20        10.9495   -6.9988   -3.1967 H         1 <0>         0.1411
     55 H21        12.9820   -7.7498   -1.9782 H         1 <0>         0.1472
     56 H22        12.9945   -9.9696   -0.9114 H         1 <0>         0.1672
     57 H23         9.1149  -10.7182   -2.1816 H         1 <0>         0.1530
     58 H24         7.7940  -10.2517   -3.4905 H         1 <0>         0.3899
     59 H25        -0.2917    3.9188   -1.6448 H         1 <0>         0.4029
     60 H26         1.2756    4.5183   -1.7284 H         1 <0>         0.4101
     61 H27         6.6543   -6.7137   -3.9256 H         1 <0>         0.4297
@<TRIPOS>BOND
     1    1    6 ar
     2    1    2 ar
     3    1   36 1
     4    2    3 ar
     5    2   37 1
     6    3    4 ar
     7    3   33 1
     8    4    5 ar
     9    4   38 1
    10    5    6 ar
    11    5    7 1
    12    6   39 1
    13    7    8 2
    14    8   13 1
    15    8    9 1
    16    9   10 1
    17    9   41 1
    18    9   40 1
    19   10   11 2
    20   10   12 1
    21   13   14 1
    22   13   42 1
    23   14   19 ar
    24   14   15 ar
    25   15   16 ar
    26   15   43 1
    27   16   17 ar
    28   16   44 1
    29   17   18 ar
    30   17   20 1
    31   18   19 ar
    32   18   45 1
    33   19   46 1
    34   20   21 1
    35   20   47 1
    36   20   48 1
    37   21   22 1
    38   21   49 1
    39   21   50 1
    40   22   23 1
    41   22   51 1
    42   22   61 1
    43   23   24 1
    44   23   52 1
    45   23   53 1
    46   24   25 1
    47   24   26 1
    48   24   32 1
    49   26   31 ar
    50   26   27 ar
    51   27   28 ar
    52   27   54 1
    53   28   29 ar
    54   28   55 1
    55   29   30 ar
    56   29   56 1
    57   30   31 ar
    58   31   57 1
    59   32   58 1
    60   33   34 2
    61   33   35 am
    62   35   59 1
    63   35   60 1
@<TRIPOS>MOLECULE
CHEMBL127451__2
   61    63     0     0     0
SMALL
USER_CHARGES

@<TRIPOS>ATOM
      1 C1         -1.3081   -5.0177    4.1045 C.ar      1 <0>        -0.1044
      2 C2         -2.2296   -5.8600    3.5144 C.ar      1 <0>        -0.0936
      3 C3         -2.1795   -6.1015    2.1400 C.ar      1 <0>        -0.1160
      4 C4         -1.1969   -5.4899    1.3637 C.ar      1 <0>        -0.0499
      5 C5         -0.2708   -4.6411    1.9655 C.ar      1 <0>         0.0834
      6 C6         -0.3321   -4.4087    3.3412 C.ar      1 <0>        -0.1337
      7 N1          0.6996   -4.0351    1.2085 N.2       1 <0>        -0.4774
      8 C7          0.8040   -2.7369    1.2014 C.2       1 <0>         0.3755
      9 C8          1.9534   -2.0773    0.4840 C.3       1 <0>         0.0286
     10 N2          3.0975   -2.9918    0.4503 N.pl3     1 <0>        -0.0207
     11 O1          2.9337   -4.1545    0.1620 O.2       1 <0>        -0.0808
     12 O2          4.2053   -2.5839    0.7109 O.3       1 <0>        -0.1731
     13 N3         -0.1306   -1.9715    1.8459 N.pl3     1 <0>        -0.6798
     14 C9          0.0540   -0.5903    1.9581 C.ar      1 <0>         0.1681
     15 C10         0.5863    0.1294    0.8959 C.ar      1 <0>        -0.1710
     16 C11         0.7669    1.4938    1.0099 C.ar      1 <0>        -0.0712
     17 C12         0.4190    2.1436    2.1800 C.ar      1 <0>        -0.1249
     18 C13        -0.1108    1.4300    3.2395 C.ar      1 <0>        -0.0714
     19 C14        -0.2998    0.0663    3.1299 C.ar      1 <0>        -0.1377
     20 C15         0.6180    3.6325    2.3010 C.3       1 <0>        -0.0998
     21 C16        -0.6433    4.3559    1.8249 C.3       1 <0>        -0.0077
     22 N4         -0.4494    5.8073    1.9428 N.4       1 <0>        -0.5056
     23 C17        -1.6604    6.5019    1.4857 C.3       1 <0>        -0.0426
     24 C18        -1.4583    8.0135    1.6085 C.3       1 <0>         0.1418
     25 H1         -0.6111    8.3179    0.9941 H         1 <0>         0.1342
     26 C19        -2.7007    8.7261    1.1396 C.ar      1 <0>        -0.2013
     27 C20        -2.8004    9.1765   -0.1681 C.ar      1 <0>        -0.0548
     28 C21        -3.9618    9.8269   -0.5552 C.ar      1 <0>        -0.1639
     29 C22        -4.9747   10.0035    0.3686 C.ar      1 <0>         0.1230
     30 N5         -4.8450    9.5621    1.6043 N.ar      1 <0>        -0.4748
     31 C23        -3.7571    8.9338    2.0057 C.ar      1 <0>         0.1172
     32 O3         -1.2024    8.3505    2.9734 O.3       1 <0>        -0.5458
     33 C24        -3.1664   -7.0044    1.5098 C.2       1 <0>         0.5613
     34 O4         -3.1215   -7.2137    0.3133 O.2       1 <0>        -0.5310
     35 N6         -4.1157   -7.5954    2.2621 N.am      1 <0>        -0.8478
     36 H2         -1.3538   -4.8310    5.1673 H         1 <0>         0.1361
     37 H3         -2.9905   -6.3332    4.1172 H         1 <0>         0.1328
     38 H4         -1.1534   -5.6735    0.3003 H         1 <0>         0.1463
     39 H5          0.3854   -3.7508    3.8090 H         1 <0>         0.1251
     40 H6          1.6535   -1.8330   -0.5351 H         1 <0>         0.1641
     41 H7          2.2335   -1.1642    1.0091 H         1 <0>         0.1580
     42 H8         -0.9208   -2.3875    2.2245 H         1 <0>         0.4245
     43 H9          0.8589   -0.3775   -0.0179 H         1 <0>         0.1344
     44 H10         1.1807    2.0540    0.1845 H         1 <0>         0.1349
     45 H11        -0.3812    1.9404    4.1521 H         1 <0>         0.1340
     46 H12        -0.7177   -0.4897    3.9561 H         1 <0>         0.1362
     47 H13         0.8132    3.8895    3.3421 H         1 <0>         0.0989
     48 H14         1.4652    3.9369    1.6866 H         1 <0>         0.0989
     49 H15        -0.8386    4.0988    0.7838 H         1 <0>         0.1338
     50 H16        -1.4906    4.0515    2.4393 H         1 <0>         0.1335
     51 H17        -0.2687    6.0452    2.9066 H         1 <0>         0.4331
     52 H18        -1.8556    6.2448    0.4446 H         1 <0>         0.1447
     53 H19        -2.5076    6.1974    2.1002 H         1 <0>         0.1377
     54 H20        -1.9922    9.0246   -0.8683 H         1 <0>         0.1412
     55 H21        -4.0737   10.1913   -1.5657 H         1 <0>         0.1475
     56 H22        -5.8828   10.5091    0.0750 H         1 <0>         0.1675
     57 H23        -3.6892    8.5818    3.0245 H         1 <0>         0.1528
     58 H24        -1.9162    8.1079    3.5790 H         1 <0>         0.3900
     59 H25        -4.1516   -7.4284    3.2170 H         1 <0>         0.4015
     60 H26        -4.7631   -8.1877    1.8487 H         1 <0>         0.4097
     61 H27         0.3350    6.0891    1.3741 H         1 <0>         0.4303
@<TRIPOS>BOND
     1    1    6 ar
     2    1    2 ar
     3    1   36 1
     4    2    3 ar
     5    2   37 1
     6    3    4 ar
     7    3   33 1
     8    4    5 ar
     9    4   38 1
    10    5    6 ar
    11    5    7 1
    12    6   39 1
    13    7    8 2
    14    8   13 1
    15    8    9 1
    16    9   10 1
    17    9   41 1
    18    9   40 1
    19   10   11 2
    20   10   12 1
    21   13   14 1
    22   13   42 1
    23   14   19 ar
    24   14   15 ar
    25   15   16 ar
    26   15   43 1
    27   16   17 ar
    28   16   44 1
    29   17   18 ar
    30   17   20 1
    31   18   19 ar
    32   18   45 1
    33   19   46 1
    34   20   21 1
    35   20   47 1
    36   20   48 1
    37   21   22 1
    38   21   49 1
    39   21   50 1
    40   22   23 1
    41   22   51 1
    42   22   61 1
    43   23   24 1
    44   23   52 1
    45   23   53 1
    46   24   25 1
    47   24   26 1
    48   24   32 1
    49   26   31 ar
    50   26   27 ar
    51   27   28 ar
    52   27   54 1
    53   28   29 ar
    54   28   55 1
    55   29   30 ar
    56   29   56 1
    57   30   31 ar
    58   31   57 1
    59   32   58 1
    60   33   34 2
    61   33   35 am
    62   35   59 1
    63   35   60 1
@<TRIPOS>MOLECULE
CHEMBL127451__3
   60    62     0     0     0
SMALL
USER_CHARGES

@<TRIPOS>ATOM
      1 C1         -1.7293   -0.5700   -2.1221 C.ar      1 <0>        -0.1042
      2 C2         -1.0059    0.5510   -2.5005 C.ar      1 <0>        -0.1367
      3 C3          0.3535    0.6625   -2.1778 C.ar      1 <0>        -0.1233
      4 C4          0.9830   -0.3550   -1.4743 C.ar      1 <0>        -0.0983
      5 C5          0.2408   -1.4959   -1.0909 C.ar      1 <0>         0.1885
      6 C6         -1.1309   -1.5821   -1.4301 C.ar      1 <0>        -0.1382
      7 N1          0.8293   -2.4844   -0.4139 N.2       1 <0>        -0.6459
      8 C7          0.3291   -2.8810    0.7544 C.2       1 <0>         0.5326
      9 C8         -0.7237   -2.1781    1.3360 C.2       1 <0>        -0.4155
     10 N2         -1.5806   -2.8178    2.2186 N.pl3     1 <0>         0.1643
     11 O1         -1.5531   -4.0220    2.3222 O.2       1 <0>        -0.3758
     12 O2         -2.3554   -2.1713    2.8846 O.3       1 <0>        -0.3445
     13 N3          0.8544   -3.9904    1.3904 N.pl3     1 <0>        -0.6512
     14 C9          1.9912   -4.6150    0.8778 C.ar      1 <0>         0.2074
     15 C10         2.9854   -3.8597    0.2661 C.ar      1 <0>        -0.1143
     16 C11         4.1093   -4.4816   -0.2401 C.ar      1 <0>        -0.0879
     17 C12         4.2466   -5.8544   -0.1398 C.ar      1 <0>        -0.1572
     18 C13         3.2594   -6.6093    0.4676 C.ar      1 <0>        -0.0861
     19 C14         2.1357   -5.9939    0.9822 C.ar      1 <0>        -0.1623
     20 C15         5.4747   -6.5294   -0.6941 C.3       1 <0>        -0.0876
     21 C16         6.5519   -6.5987    0.3902 C.3       1 <0>        -0.0086
     22 N4          7.7490   -7.2566   -0.1502 N.4       1 <0>        -0.5053
     23 C17         8.7833   -7.3231    0.8909 C.3       1 <0>        -0.0425
     24 C18        10.0301   -8.0084    0.3281 C.3       1 <0>         0.1407
     25 H1         10.4059   -7.4381   -0.5215 H         1 <0>         0.1335
     26 C19        11.0911   -8.0766    1.3961 C.ar      1 <0>        -0.1971
     27 C20        12.0683   -7.0962    1.4787 C.ar      1 <0>        -0.0549
     28 C21        13.0242   -7.1999    2.4773 C.ar      1 <0>        -0.1648
     29 C22        12.9719   -8.2695    3.3513 C.ar      1 <0>         0.1200
     30 N5         12.0281   -9.1837    3.2426 N.ar      1 <0>        -0.4758
     31 C23        11.0991   -9.1139    2.3090 C.ar      1 <0>         0.1169
     32 O3          9.6959   -9.3312   -0.0966 O.3       1 <0>        -0.5465
     33 C24         1.1160    1.8620   -2.5865 C.2       1 <0>         0.5675
     34 O4          2.2948    1.9576   -2.3061 O.2       1 <0>        -0.5484
     35 N6          0.5037    2.8492   -3.2700 N.am      1 <0>        -0.8536
     36 H2         -2.7773   -0.6405   -2.3737 H         1 <0>         0.1183
     37 H3         -1.4935    1.3438   -3.0483 H         1 <0>         0.1151
     38 H4          2.0302   -0.2763   -1.2224 H         1 <0>         0.1279
     39 H5         -1.7045   -2.4503   -1.1408 H         1 <0>         0.1170
     40 H6         -0.8724   -1.1349    1.0994 H         1 <0>         0.1566
     41 H7          0.4323   -4.3345    2.1931 H         1 <0>         0.4259
     42 H8          2.8786   -2.7879    0.1868 H         1 <0>         0.1463
     43 H9          4.8820   -3.8956   -0.7153 H         1 <0>         0.1183
     44 H10         3.3700   -7.6810    0.5437 H         1 <0>         0.1182
     45 H11         1.3676   -6.5834    1.4606 H         1 <0>         0.1272
     46 H12         5.2198   -7.5384   -1.0181 H         1 <0>         0.0893
     47 H13         5.8505   -5.9591   -1.5437 H         1 <0>         0.0901
     48 H14         6.8068   -5.5896    0.7141 H         1 <0>         0.1332
     49 H15         6.1761   -7.1689    1.2397 H         1 <0>         0.1323
     50 H16         7.5130   -8.1906   -0.4500 H         1 <0>         0.4308
     51 H17         9.0382   -6.3141    1.2148 H         1 <0>         0.1441
     52 H18         8.4075   -7.8934    1.7404 H         1 <0>         0.1369
     53 H19        12.0845   -6.2717    0.7813 H         1 <0>         0.1414
     54 H20        13.8002   -6.4546    2.5709 H         1 <0>         0.1462
     55 H21        13.7130   -8.3575    4.1320 H         1 <0>         0.1658
     56 H22        10.3387   -9.8788    2.2545 H         1 <0>         0.1535
     57 H23         9.3539   -9.8964    0.6096 H         1 <0>         0.3895
     58 H24        -0.4370    2.7729   -3.4938 H         1 <0>         0.4014
     59 H25         1.0038    3.6359   -3.5381 H         1 <0>         0.4013
     60 H26         8.0969   -6.7287   -0.9366 H         1 <0>         0.4284
@<TRIPOS>BOND
     1    1    6 ar
     2    1    2 ar
     3    1   36 1
     4    2    3 ar
     5    2   37 1
     6    3    4 ar
     7    3   33 1
     8    4    5 ar
     9    4   38 1
    10    5    6 ar
    11    5    7 1
    12    6   39 1
    13    7    8 2
    14    8   13 1
    15    8    9 1
    16    9   10 1
    17    9   40 1
    18   10   11 2
    19   10   12 1
    20   13   14 1
    21   13   41 1
    22   14   19 ar
    23   14   15 ar
    24   15   16 ar
    25   15   42 1
    26   16   17 ar
    27   16   43 1
    28   17   18 ar
    29   17   20 1
    30   18   19 ar
    31   18   44 1
    32   19   45 1
    33   20   21 1
    34   20   46 1
    35   20   47 1
    36   21   22 1
    37   21   48 1
    38   21   49 1
    39   22   23 1
    40   22   50 1
    41   22   60 1
    42   23   24 1
    43   23   51 1
    44   23   52 1
    45   24   25 1
    46   24   26 1
    47   24   32 1
    48   26   31 ar
    49   26   27 ar
    50   27   28 ar
    51   27   53 1
    52   28   29 ar
    53   28   54 1
    54   29   30 ar
    55   29   55 1
    56   30   31 ar
    57   31   56 1
    58   32   57 1
    59   33   34 2
    60   33   35 am
    61   35   58 1
    62   35   59 1
@<TRIPOS>MOLECULE
CHEMBL417325
   71    74     0     0     0
SMALL
USER_CHARGES

@<TRIPOS>ATOM
      1 C1          1.1906    2.2840   -1.6099 C.3       1 <0>        -0.6345
      2 S1          1.5920    0.6969   -2.3913 S.o2      1 <0>         2.5252
      3 O1          0.8810    0.5597   -3.6140 O.2       1 <0>        -1.0368
      4 O2          2.9930    0.4656   -2.3381 O.2       1 <0>        -1.0275
      5 N1          0.9364   -0.4481   -1.3905 N.2       1 <0>        -1.0758
      6 C2          0.9749   -1.7994   -1.7532 C.ar      1 <0>         0.2691
      7 C3          1.6610   -2.1944   -2.8924 C.ar      1 <0>        -0.2339
      8 C4          1.6980   -3.5295   -3.2482 C.ar      1 <0>        -0.0970
      9 C5          1.0526   -4.4736   -2.4713 C.ar      1 <0>        -0.2010
     10 C6          0.3668   -4.0872   -1.3344 C.ar      1 <0>        -0.1035
     11 C7          0.3293   -2.7520   -0.9680 C.ar      1 <0>         0.0515
     12 O3         -0.3405   -2.3712    0.1528 O.3       1 <0>        -0.4809
     13 C8          2.4432   -3.9571   -4.4863 C.3       1 <0>         0.1388
     14 H1          3.2202   -3.2271   -4.7130 H         1 <0>         0.1241
     15 C9          1.4689   -4.0468   -5.6626 C.3       1 <0>        -0.0452
     16 N2          2.1954   -4.4636   -6.8694 N.4       1 <0>        -0.5031
     17 C10         1.2599   -4.5498   -7.9988 C.3       1 <0>         0.0266
     18 C11         0.2413   -5.6607   -7.7335 C.3       1 <0>        -0.1601
     19 C12        -0.7532   -5.7246   -8.8969 C.3       1 <0>         0.1246
     20 N3         -0.0041   -5.8797  -10.1514 N.pl3     1 <0>        -0.6329
     21 C13         1.0614   -4.9168  -10.4616 C.3       1 <0>         0.1258
     22 C14         2.0355   -4.8620   -9.2806 C.3       1 <0>        -0.1585
     23 C15        -0.2978   -6.9183  -11.0281 C.ar      1 <0>         0.2188
     24 C16        -1.2250   -7.8916  -10.6662 C.ar      1 <0>        -0.2015
     25 C17        -1.5177   -8.9207  -11.5316 C.ar      1 <0>        -0.0189
     26 C18        -0.8829   -8.9881  -12.7753 C.ar      1 <0>        -0.1545
     27 C19         0.0477   -8.0092  -13.1357 C.ar      1 <0>        -0.0519
     28 C20         0.3319   -6.9794  -12.2682 C.ar      1 <0>        -0.2016
     29 C21        -1.1940  -10.0902  -13.7052 C.2       1 <0>         0.5719
     30 O4         -1.5820  -11.1587  -13.2735 O.2       1 <0>        -0.5267
     31 N4         -1.0483   -9.9128  -15.0332 N.am      1 <0>        -0.5847
     32 C22        -0.5156   -8.7025  -15.6851 C.3       1 <0>         0.0954
     33 C23        -1.1094   -8.7285  -17.1156 C.3       1 <0>        -0.1353
     34 C24        -1.0813  -10.2461  -17.4370 C.3       1 <0>        -0.1072
     35 C25        -1.3885  -10.8966  -16.0715 C.3       1 <0>         0.0652
     36 H2         -2.4476  -11.1470  -16.0122 H         1 <0>         0.0675
     37 C26        -0.5543  -12.1389  -15.8934 C.2       1 <0>         0.4967
     38 O5         -0.8098  -13.1422  -16.5373 O.co2     1 <0>        -0.7006
     39 O6          0.3760  -12.1408  -15.1053 O.co2     1 <0>        -0.6788
     40 O7          3.0412   -5.2359   -4.2645 O.3       1 <0>        -0.5530
     41 H3          0.1083    2.3877   -1.5331 H         1 <0>         0.1175
     42 H4          1.6307    2.3199   -0.6133 H         1 <0>         0.1187
     43 H5          1.5917    3.0980   -2.2138 H         1 <0>         0.1045
     44 H6          2.1657   -1.4589   -3.5013 H         1 <0>         0.1076
     45 H7          1.0839   -5.5157   -2.7532 H         1 <0>         0.1047
     46 H8         -0.1363   -4.8272   -0.7297 H         1 <0>         0.1170
     47 H9         -1.2870   -2.2282    0.0159 H         1 <0>         0.3690
     48 H10         0.6919   -4.7769   -5.4359 H         1 <0>         0.1376
     49 H11         1.0128   -3.0714   -5.8317 H         1 <0>         0.1455
     50 H12         2.9146   -3.7878   -7.0792 H         1 <0>         0.4271
     51 H13         0.7389   -3.5991   -8.1120 H         1 <0>         0.1398
     52 H14         0.7593   -6.6157   -7.6448 H         1 <0>         0.0930
     53 H15        -0.2945   -5.4496   -6.8081 H         1 <0>         0.0991
     54 H16        -1.4197   -6.5765   -8.7616 H         1 <0>         0.1046
     55 H17        -1.3358   -4.8040   -8.9307 H         1 <0>         0.0739
     56 H18         1.5922   -5.2357  -11.3586 H         1 <0>         0.1039
     57 H19         0.6268   -3.9303  -10.6229 H         1 <0>         0.0731
     58 H20         2.7768   -4.0824   -9.4563 H         1 <0>         0.0975
     59 H21         2.5366   -5.8244   -9.1773 H         1 <0>         0.0927
     60 H22        -1.7148   -7.8392   -9.7051 H         1 <0>         0.1257
     61 H23        -2.2368   -9.6757  -11.2501 H         1 <0>         0.1337
     62 H24         0.5400   -8.0587  -14.0957 H         1 <0>         0.1419
     63 H25         1.0472   -6.2202  -12.5480 H         1 <0>         0.1248
     64 H26        -0.8447   -7.8095  -15.1538 H         1 <0>         0.0745
     65 H27         0.5730   -8.7414  -15.7255 H         1 <0>         0.0665
     66 H28        -2.1304   -8.3467  -17.1217 H         1 <0>         0.0718
     67 H29        -0.4811   -8.1704  -17.8096 H         1 <0>         0.0782
     68 H30        -1.8484  -10.4996  -18.1688 H         1 <0>         0.0763
     69 H31        -0.0951  -10.5473  -17.7904 H         1 <0>         0.0723
     70 H32         2.4072   -5.9359   -4.0571 H         1 <0>         0.3842
     71 H33         2.6176   -5.3666   -6.7128 H         1 <0>         0.4274
@<TRIPOS>BOND
     1    1    2 1
     2    1   41 1
     3    1   42 1
     4    1   43 1
     5    2    3 2
     6    2    4 2
     7    2    5 1
     8    5    6 1
     9    6   11 ar
    10    6    7 ar
    11    7    8 ar
    12    7   44 1
    13    8    9 ar
    14    8   13 1
    15    9   10 ar
    16    9   45 1
    17   10   11 ar
    18   10   46 1
    19   11   12 1
    20   12   47 1
    21   13   14 1
    22   13   15 1
    23   13   40 1
    24   15   16 1
    25   15   48 1
    26   15   49 1
    27   16   17 1
    28   16   50 1
    29   16   71 1
    30   17   22 1
    31   17   18 1
    32   17   51 1
    33   18   19 1
    34   18   52 1
    35   18   53 1
    36   19   20 1
    37   19   54 1
    38   19   55 1
    39   20   21 1
    40   20   23 1
    41   21   22 1
    42   21   56 1
    43   21   57 1
    44   22   58 1
    45   22   59 1
    46   23   28 ar
    47   23   24 ar
    48   24   25 ar
    49   24   60 1
    50   25   26 ar
    51   25   61 1
    52   26   27 ar
    53   26   29 1
    54   27   28 ar
    55   27   62 1
    56   28   63 1
    57   29   30 2
    58   29   31 am
    59   31   35 1
    60   31   32 1
    61   32   33 1
    62   32   64 1
    63   32   65 1
    64   33   34 1
    65   33   66 1
    66   33   67 1
    67   34   35 1
    68   34   68 1
    69   34   69 1
    70   35   36 1
    71   35   37 1
    72   37   38 2
    73   37   39 1
    74   40   70 1
@<TRIPOS>MOLECULE
CHEMBL417325__1
   72    75     0     0     0
SMALL
USER_CHARGES

@<TRIPOS>ATOM
      1 C1          0.2849    1.3511    0.1303 C.3       1 <0>        -0.6695
      2 S1          0.3190   -0.4608    0.0514 S.o2      1 <0>         2.6061
      3 O1          1.1496   -0.9800    1.0809 O.2       1 <0>        -0.9499
      4 O2         -0.9943   -0.9670   -0.1442 O.2       1 <0>        -0.9369
      5 N1          1.1205   -0.8106   -1.3549 N.pl3     1 <0>        -1.0508
      6 C2          2.4379   -0.3744   -1.5366 C.ar      1 <0>         0.1363
      7 C3          3.3124   -0.3355   -0.4603 C.ar      1 <0>        -0.1478
      8 C4          4.6131    0.0952   -0.6425 C.ar      1 <0>        -0.1184
      9 C5          5.0458    0.4878   -1.8955 C.ar      1 <0>        -0.1030
     10 C6          4.1798    0.4516   -2.9729 C.ar      1 <0>        -0.1124
     11 C7          2.8763    0.0163   -2.7999 C.ar      1 <0>         0.1084
     12 O3          2.0250   -0.0247   -3.8598 O.3       1 <0>        -0.4877
     13 C8          5.5617    0.1374    0.5277 C.3       1 <0>         0.1346
     14 H1          5.2397   -0.5800    1.2826 H         1 <0>         0.1371
     15 C9          5.5664    1.5439    1.1300 C.3       1 <0>        -0.0484
     16 N2          6.4911    1.5850    2.2707 N.4       1 <0>        -0.5038
     17 C10         6.4957    2.9355    2.8489 C.3       1 <0>         0.0273
     18 C11         7.0640    3.9249    1.8290 C.3       1 <0>        -0.1599
     19 C12         7.0351    5.3369    2.4224 C.3       1 <0>         0.1259
     20 N3          7.7434    5.3235    3.7096 N.pl3     1 <0>        -0.6343
     21 C13         7.3361    4.3479    4.7299 C.3       1 <0>         0.1252
     22 C14         7.3617    2.9469    4.1106 C.3       1 <0>        -0.1599
     23 C15         8.7798    6.2168    3.9573 C.ar      1 <0>         0.2116
     24 C16         9.0651    7.2220    3.0373 C.ar      1 <0>        -0.1985
     25 C17        10.0902    8.1076    3.2796 C.ar      1 <0>        -0.0217
     26 C18        10.8452    7.9971    4.4509 C.ar      1 <0>        -0.1464
     27 C19        10.5562    6.9866    5.3726 C.ar      1 <0>        -0.0459
     28 C20         9.5263    6.1076    5.1273 C.ar      1 <0>        -0.1983
     29 C21        11.9451    8.9445    4.7134 C.2       1 <0>         0.5696
     30 O4         12.5917    9.3969    3.7883 O.2       1 <0>        -0.5242
     31 N4         12.2333    9.3086    5.9786 N.am      1 <0>        -0.5835
     32 C22        11.5860    8.7804    7.1933 C.3       1 <0>         0.0983
     33 C23        11.7816    9.8867    8.2599 C.3       1 <0>        -0.1350
     34 C24        13.2032   10.4040    7.9151 C.3       1 <0>        -0.1076
     35 C25        13.2496   10.2937    6.3764 C.3       1 <0>         0.0647
     36 H2         13.0221   11.2619    5.9302 H         1 <0>         0.0684
     37 C26        14.6135    9.8301    5.9340 C.2       1 <0>         0.4966
     38 O5         15.5672   10.5865    6.0048 O.co2     1 <0>        -0.6979
     39 O6         14.7634    8.6987    5.5052 O.co2     1 <0>        -0.6802
     40 O7          6.8790   -0.1957    0.0853 O.3       1 <0>        -0.5439
     41 H3          1.3055    1.7335    0.1420 H         1 <0>         0.1257
     42 H4         -0.2399    1.7429   -0.7411 H         1 <0>         0.1354
     43 H5         -0.2314    1.6657    1.0372 H         1 <0>         0.1392
     44 H6          0.6769   -1.3178   -2.0527 H         1 <0>         0.4366
     45 H7          2.9768   -0.6413    0.5196 H         1 <0>         0.1705
     46 H8          6.0629    0.8239   -2.0331 H         1 <0>         0.1326
     47 H9          4.5211    0.7590   -3.9504 H         1 <0>         0.1449
     48 H10         1.5277    0.7933   -3.9968 H         1 <0>         0.3979
     49 H11         5.8885    2.2613    0.3751 H         1 <0>         0.1395
     50 H12         4.5616    1.7980    1.4674 H         1 <0>         0.1445
     51 H13         6.1930    0.9210    2.9694 H         1 <0>         0.4298
     52 H14         5.4763    3.2241    3.1054 H         1 <0>         0.1401
     53 H15         8.0919    3.6514    1.5906 H         1 <0>         0.0950
     54 H16         6.4604    3.8991    0.9217 H         1 <0>         0.0944
     55 H17         7.5286    6.0298    1.7410 H         1 <0>         0.1053
     56 H18         6.0017    5.6471    2.5772 H         1 <0>         0.0717
     57 H19         8.0283    4.3883    5.5710 H         1 <0>         0.1069
     58 H20         6.3273    4.5774    5.0729 H         1 <0>         0.0729
     59 H21         6.9699    2.2252    4.8273 H         1 <0>         0.0988
     60 H22         8.3867    2.6827    3.8507 H         1 <0>         0.0948
     61 H23         8.4816    7.3066    2.1325 H         1 <0>         0.1244
     62 H24        10.3113    8.8870    2.5654 H         1 <0>         0.1340
     63 H25        11.1380    6.8984    6.2782 H         1 <0>         0.1388
     64 H26         9.2994    5.3296    5.8413 H         1 <0>         0.1249
     65 H27        10.5245    8.6099    7.0139 H         1 <0>         0.0707
     66 H28        12.0711    7.8574    7.5108 H         1 <0>         0.0654
     67 H29        11.0396   10.6767    8.1440 H         1 <0>         0.0719
     68 H30        11.7513    9.4689    9.2662 H         1 <0>         0.0788
     69 H31        13.3247   11.4393    8.2337 H         1 <0>         0.0775
     70 H32        13.9649    9.7685    8.3667 H         1 <0>         0.0730
     71 H33         7.2305    0.4020   -0.5886 H         1 <0>         0.3885
     72 H34         7.4213    1.3498    1.9583 H         1 <0>         0.4315
@<TRIPOS>BOND
     1    1    2 1
     2    1   41 1
     3    1   42 1
     4    1   43 1
     5    2    3 2
     6    2    4 2
     7    2    5 1
     8    5    6 1
     9    5   44 1
    10    6   11 ar
    11    6    7 ar
    12    7    8 ar
    13    7   45 1
    14    8    9 ar
    15    8   13 1
    16    9   10 ar
    17    9   46 1
    18   10   11 ar
    19   10   47 1
    20   11   12 1
    21   12   48 1
    22   13   14 1
    23   13   15 1
    24   13   40 1
    25   15   16 1
    26   15   49 1
    27   15   50 1
    28   16   17 1
    29   16   51 1
    30   16   72 1
    31   17   22 1
    32   17   18 1
    33   17   52 1
    34   18   19 1
    35   18   53 1
    36   18   54 1
    37   19   20 1
    38   19   55 1
    39   19   56 1
    40   20   21 1
    41   20   23 1
    42   21   22 1
    43   21   57 1
    44   21   58 1
    45   22   59 1
    46   22   60 1
    47   23   28 ar
    48   23   24 ar
    49   24   25 ar
    50   24   61 1
    51   25   26 ar
    52   25   62 1
    53   26   27 ar
    54   26   29 1
    55   27   28 ar
    56   27   63 1
    57   28   64 1
    58   29   30 2
    59   29   31 am
    60   31   35 1
    61   31   32 1
    62   32   33 1
    63   32   65 1
    64   32   66 1
    65   33   34 1
    66   33   67 1
    67   33   68 1
    68   34   35 1
    69   34   69 1
    70   34   70 1
    71   35   36 1
    72   35   37 1
    73   37   38 2
    74   37   39 1
    75   40   71 1
@<TRIPOS>MOLECULE
CHEMBL103137
   64    67     0     0     0
SMALL
USER_CHARGES

@<TRIPOS>ATOM
      1 C1         -0.0166    1.3740    0.0096 C.ar      1 <0>        -0.1465
      2 C2          1.1714    2.0887    0.0021 C.ar      1 <0>        -0.0812
      3 C3          2.3836    1.4330   -0.0130 C.ar      1 <0>        -0.1357
      4 C4          2.4231    0.0421   -0.0214 C.ar      1 <0>         0.1350
      5 C5          1.2202   -0.6796   -0.0138 C.ar      1 <0>        -0.0943
      6 C6          0.0021   -0.0041    0.0020 C.ar      1 <0>        -0.0623
      7 C7          1.5889   -2.1068   -0.0256 C.ar      1 <0>        -0.1285
      8 C8          2.9901   -2.1563   -0.0395 C.ar      1 <0>         0.1830
      9 N1          3.4726   -0.8597   -0.0368 N.pl3     1 <0>        -0.6109
     10 H1          4.4118   -0.6174   -0.0448 H         1 <0>         0.4243
     11 C9          3.6293   -3.3927   -0.0533 C.ar      1 <0>        -0.1668
     12 C10         2.8884   -4.5554   -0.0536 C.ar      1 <0>        -0.0455
     13 C11         1.5040   -4.5098   -0.0403 C.ar      1 <0>        -0.2449
     14 C12         0.8481   -3.2912   -0.0258 C.ar      1 <0>         0.1746
     15 O1         -0.5096   -3.2469   -0.0123 O.3       1 <0>        -0.2960
     16 C13        -1.1995   -4.4984   -0.0135 C.3       1 <0>         0.0277
     17 C14        -2.7089   -4.2486    0.0028 C.3       1 <0>         0.0852
     18 H2         -2.9629   -3.6131    0.8511 H         1 <0>         0.1359
     19 C15        -3.4455   -5.5839    0.1273 C.3       1 <0>        -0.0436
     20 N2         -4.8947   -5.3441    0.1428 N.4       1 <0>        -0.5057
     21 C16        -5.6019   -6.6261    0.2624 C.3       1 <0>        -0.0057
     22 C17        -7.1112   -6.3764    0.2786 C.3       1 <0>        -0.1309
     23 C18        -7.4878   -5.5973    1.5421 C.3       1 <0>        -0.1616
     24 C19        -9.0070   -5.4202    1.5918 C.3       1 <0>        -0.0056
     25 N3         -9.6561   -6.7365    1.6151 N.4       1 <0>        -0.3821
     26 C20        -9.3577   -7.4611    0.3739 C.3       1 <0>        -0.0179
     27 C21        -7.8521   -7.7167    0.2774 C.3       1 <0>        -0.1376
     28 C22       -11.1092   -6.5620    1.7412 C.3       1 <0>        -0.0135
     29 C23       -11.7761   -7.9309    1.8910 C.3       1 <0>        -0.2036
     30 C24       -13.2896   -7.7492    2.0224 C.3       1 <0>         0.4662
     31 F1        -13.7838   -7.1122    0.8790 F         1 <0>        -0.1738
     32 F2        -13.8994   -9.0008    2.1594 F         1 <0>        -0.1622
     33 F3        -13.5695   -6.9683    3.1490 F         1 <0>        -0.1728
     34 O2         -3.0977   -3.6015   -1.2105 O.3       1 <0>        -0.5431
     35 H3         -0.9602    1.8991    0.0259 H         1 <0>         0.1272
     36 H4          1.1468    3.1684    0.0078 H         1 <0>         0.1334
     37 H5          3.3033    1.9990   -0.0188 H         1 <0>         0.1289
     38 H6         -0.9248   -0.5584    0.0079 H         1 <0>         0.1229
     39 H7          4.7082   -3.4413   -0.0642 H         1 <0>         0.1325
     40 H8          3.3921   -5.5107   -0.0647 H         1 <0>         0.1361
     41 H9          0.9349   -5.4277   -0.0410 H         1 <0>         0.1262
     42 H10        -0.9336   -5.0590   -0.9096 H         1 <0>         0.0788
     43 H11        -0.9163   -5.0702    0.8702 H         1 <0>         0.0827
     44 H12        -3.1914   -6.2194   -0.7210 H         1 <0>         0.1447
     45 H13        -3.1489   -6.0775    1.0527 H         1 <0>         0.1502
     46 H14        -5.1298   -4.7558    0.9281 H         1 <0>         0.4277
     47 H15        -5.3478   -7.2617   -0.5859 H         1 <0>         0.1458
     48 H16        -5.3053   -7.1197    1.1879 H         1 <0>         0.1412
     49 H17        -7.3952   -5.8022   -0.6033 H         1 <0>         0.1170
     50 H18        -7.1567   -6.1488    2.4220 H         1 <0>         0.1069
     51 H19        -7.0078   -4.6189    1.5230 H         1 <0>         0.1121
     52 H20        -9.2785   -4.8657    2.4900 H         1 <0>         0.1453
     53 H21        -9.3369   -4.8684    0.7116 H         1 <0>         0.1390
     54 H22        -9.8882   -8.4133    0.3731 H         1 <0>         0.1434
     55 H23        -9.6802   -6.8658   -0.4803 H         1 <0>         0.1403
     56 H24        -7.6324   -8.2531   -0.6456 H         1 <0>         0.1276
     57 H25        -7.5285   -8.3122    1.1311 H         1 <0>         0.1028
     58 H26       -11.3273   -5.9536    2.6190 H         1 <0>         0.1514
     59 H27       -11.4943   -6.0658    0.8504 H         1 <0>         0.1486
     60 H28       -11.5581   -8.5393    1.0133 H         1 <0>         0.1344
     61 H29       -11.3911   -8.4271    2.7818 H         1 <0>         0.1372
     62 H30        -2.9014   -4.1111   -2.0085 H         1 <0>         0.3921
     63 H31        -9.3133   -7.2655    2.4029 H         1 <0>         0.4278
     64 H32        -5.1692   -4.8872   -0.7138 H         1 <0>         0.4365
@<TRIPOS>BOND
     1    1    6 ar
     2    1    2 ar
     3    1   35 1
     4    2    3 ar
     5    2   36 1
     6    3    4 ar
     7    3   37 1
     8    4    9 1
     9    4    5 ar
    10    5    6 ar
    11    5    7 1
    12    6   38 1
    13    7   14 ar
    14    7    8 ar
    15    8    9 1
    16    8   11 ar
    17    9   10 1
    18   11   12 ar
    19   11   39 1
    20   12   13 ar
    21   12   40 1
    22   13   14 ar
    23   13   41 1
    24   14   15 1
    25   15   16 1
    26   16   17 1
    27   16   42 1
    28   16   43 1
    29   17   18 1
    30   17   19 1
    31   17   34 1
    32   19   20 1
    33   19   44 1
    34   19   45 1
    35   20   21 1
    36   20   46 1
    37   20   64 1
    38   21   22 1
    39   21   47 1
    40   21   48 1
    41   22   27 1
    42   22   23 1
    43   22   49 1
    44   23   24 1
    45   23   50 1
    46   23   51 1
    47   24   25 1
    48   24   52 1
    49   24   53 1
    50   25   26 1
    51   25   28 1
    52   25   63 1
    53   26   27 1
    54   26   54 1
    55   26   55 1
    56   27   56 1
    57   27   57 1
    58   28   29 1
    59   28   58 1
    60   28   59 1
    61   29   30 1
    62   29   60 1
    63   29   61 1
    64   30   31 1
    65   30   32 1
    66   30   33 1
    67   34   62 1
@<TRIPOS>MOLECULE
CHEMBL1221589
   44    46     0     0     0
SMALL
USER_CHARGES

@<TRIPOS>ATOM
      1 C1         -0.0167    1.3781    0.0096 C.ar      1 <0>        -0.1160
      2 C2          1.1709    2.0855    0.0021 C.ar      1 <0>        -0.1167
      3 C3          2.3773    1.4107   -0.0130 C.ar      1 <0>        -0.1155
      4 C4          2.3960    0.0285   -0.0201 C.ar      1 <0>        -0.0970
      5 C5          1.2084   -0.6789   -0.0117 C.ar      1 <0>        -0.1152
      6 C6          0.0021   -0.0041    0.0020 C.ar      1 <0>        -0.1163
      7 C7          3.7112   -0.7071   -0.0376 C.3       1 <0>        -0.0743
      8 C8          4.1714   -0.9633    1.3989 C.3       1 <0>        -0.1442
      9 C9          5.5066   -1.7102    1.3812 C.3       1 <0>        -0.0108
     10 N1          5.9484   -1.9561    2.7604 N.4       1 <0>        -0.5054
     11 C10         7.2304   -2.6732    2.7434 C.3       1 <0>        -0.0452
     12 C11         7.6906   -2.9294    4.1799 C.3       1 <0>         0.1621
     13 H1          6.9444   -3.5313    4.6986 H         1 <0>         0.1155
     14 C12         9.0057   -3.6650    4.1624 C.ar      1 <0>        -0.2345
     15 C13        10.1953   -2.9646    4.2636 C.ar      1 <0>        -0.0378
     16 C14        11.3914   -3.6608    4.2459 C.ar      1 <0>        -0.2398
     17 C15        11.4166   -5.0347    4.1296 C.ar      1 <0>         0.3003
     18 C16        10.2205   -5.7716    4.0251 C.ar      1 <0>        -0.0293
     19 C17         9.0289   -5.0349    4.0517 C.ar      1 <0>        -0.0474
     20 S1          7.7759   -6.2863    3.9096 S.3       1 <0>        -0.1199
     21 C18         8.8556   -7.7060    3.8295 C.2       1 <0>         0.5380
     22 O1          8.5611   -8.8825    3.7246 O.2       1 <0>        -0.4756
     23 N2         10.0789   -7.1457    3.9027 N.am      1 <0>        -0.6197
     24 H2         10.8677   -7.7099    3.8817 H         1 <0>         0.4156
     25 O2         12.6102   -5.6858    4.1152 O.3       1 <0>        -0.6860
     26 O3          7.8515   -1.6819    4.8581 O.3       1 <0>        -0.5548
     27 H3         -0.9591    1.9053    0.0259 H         1 <0>         0.1247
     28 H4          1.1563    3.1654    0.0076 H         1 <0>         0.1248
     29 H5          3.3051    1.9634   -0.0196 H         1 <0>         0.1219
     30 H6          1.2231   -1.7588   -0.0176 H         1 <0>         0.1223
     31 H7         -0.9258   -0.5567    0.0082 H         1 <0>         0.1250
     32 H8          3.5884   -1.6586   -0.5549 H         1 <0>         0.0833
     33 H9          4.4573   -0.1052   -0.5563 H         1 <0>         0.0828
     34 H10         4.2941   -0.0118    1.9163 H         1 <0>         0.0881
     35 H11         3.4252   -1.5652    1.9176 H         1 <0>         0.0884
     36 H12         5.3838   -2.6617    0.8639 H         1 <0>         0.1317
     37 H13         6.2527   -1.1082    0.8625 H         1 <0>         0.1309
     38 H14         6.0621   -1.0753    3.2393 H         1 <0>         0.4285
     39 H15         7.1076   -3.6247    2.2261 H         1 <0>         0.1405
     40 H16         7.9765   -2.0713    2.2247 H         1 <0>         0.1360
     41 H17        10.1903   -1.8885    4.3548 H         1 <0>         0.1130
     42 H18        12.3219   -3.1181    4.3241 H         1 <0>         0.1175
     43 H19         8.5021   -1.0938    4.4507 H         1 <0>         0.3836
     44 H20         5.2577   -2.5133    3.2406 H         1 <0>         0.4267
@<TRIPOS>BOND
     1    1    6 ar
     2    1    2 ar
     3    1   27 1
     4    2    3 ar
     5    2   28 1
     6    3    4 ar
     7    3   29 1
     8    4    5 ar
     9    4    7 1
    10    5    6 ar
    11    5   30 1
    12    6   31 1
    13    7    8 1
    14    7   32 1
    15    7   33 1
    16    8    9 1
    17    8   34 1
    18    8   35 1
    19    9   10 1
    20    9   36 1
    21    9   37 1
    22   10   11 1
    23   10   38 1
    24   10   44 1
    25   11   12 1
    26   11   39 1
    27   11   40 1
    28   12   13 1
    29   12   14 1
    30   12   26 1
    31   14   19 ar
    32   14   15 ar
    33   15   16 ar
    34   15   41 1
    35   16   17 ar
    36   16   42 1
    37   17   18 ar
    38   17   25 1
    39   18   23 1
    40   18   19 ar
    41   19   20 1
    42   20   21 1
    43   21   22 2
    44   21   23 am
    45   23   24 1
    46   26   43 1
@<TRIPOS>MOLECULE
CHEMBL1221588
   47    50     0     0     0
SMALL
USER_CHARGES

@<TRIPOS>ATOM
      1 C1          0.0103    1.4821   -0.3434 C.3       1 <0>        -0.1127
      2 C2          0.0150   -0.0134   -0.1576 C.2       1 <0>         0.1387
      3 C3         -1.0535   -0.8233   -0.2587 C.2       1 <0>        -0.3257
      4 C4         -0.6233   -2.1496   -0.0142 C.2       1 <0>         0.1743
      5 N1          0.6655   -2.1152    0.2241 N.2       1 <0>        -0.2853
      6 O1          1.0874   -0.7666    0.1316 O.3       1 <0>        -0.0596
      7 C5         -1.4787   -3.3626   -0.0250 C.ar      1 <0>        -0.0640
      8 C6         -1.0284   -4.5302   -0.6375 C.ar      1 <0>        -0.0802
      9 C7         -1.8279   -5.6552   -0.6447 C.ar      1 <0>        -0.1121
     10 C8         -3.0742   -5.6250   -0.0454 C.ar      1 <0>        -0.0885
     11 C9         -3.5262   -4.4685    0.5641 C.ar      1 <0>        -0.1121
     12 C10        -2.7325   -3.3394    0.5822 C.ar      1 <0>        -0.0989
     13 C11        -2.4627   -0.3941   -0.5763 C.3       1 <0>         0.0721
     14 N2         -2.6338   -0.3144   -2.0331 N.4       1 <0>        -0.5052
     15 C12        -4.0075    0.1039   -2.3427 C.3       1 <0>        -0.0472
     16 C13        -4.1856    0.1869   -3.8601 C.3       1 <0>         0.1629
     17 H1         -3.9952   -0.7910   -4.3023 H         1 <0>         0.1156
     18 C14        -5.5948    0.6161   -4.1777 C.ar      1 <0>        -0.2338
     19 C15        -5.8795    1.9508   -4.4095 C.ar      1 <0>        -0.0375
     20 C16        -7.1807    2.3222   -4.7000 C.ar      1 <0>        -0.2398
     21 C17        -8.1934    1.3882   -4.7617 C.ar      1 <0>         0.3005
     22 C18        -7.9310    0.0237   -4.5300 C.ar      1 <0>        -0.0289
     23 C19        -6.6022   -0.3168   -4.2440 C.ar      1 <0>        -0.0473
     24 S1         -6.6730   -2.0788   -4.0288 S.3       1 <0>        -0.1177
     25 C20        -8.4204   -2.2920   -4.3266 C.2       1 <0>         0.5373
     26 O2         -9.0758   -3.3177   -4.3158 O.2       1 <0>        -0.4760
     27 N3         -8.8327   -1.0295   -4.5548 N.am      1 <0>        -0.6199
     28 H2         -9.7671   -0.8573   -4.7503 H         1 <0>         0.4153
     29 O3         -9.4604    1.7892   -5.0493 O.3       1 <0>        -0.6860
     30 O4         -3.2653    1.1396   -4.3963 O.3       1 <0>        -0.5542
     31 H3          1.0202    1.8685   -0.2062 H         1 <0>         0.1037
     32 H4         -0.3372    1.7223   -1.3482 H         1 <0>         0.1021
     33 H5         -0.6556    1.9373    0.3898 H         1 <0>         0.1115
     34 H6         -0.0557   -4.5547   -1.1060 H         1 <0>         0.1306
     35 H7         -1.4800   -6.5607   -1.1195 H         1 <0>         0.1357
     36 H8         -3.6967   -6.5074   -0.0536 H         1 <0>         0.1348
     37 H9         -4.5000   -4.4502    1.0306 H         1 <0>         0.1368
     38 H10        -3.0845   -2.4383    1.0622 H         1 <0>         0.1287
     39 H11        -3.1647   -1.1208   -0.1673 H         1 <0>         0.1422
     40 H12        -2.6531    0.5837   -0.1341 H         1 <0>         0.1425
     41 H13        -1.9839    0.3582   -2.4118 H         1 <0>         0.4246
     42 H14        -4.7095   -0.6227   -1.9337 H         1 <0>         0.1426
     43 H15        -4.1979    1.0818   -1.9005 H         1 <0>         0.1389
     44 H16        -5.0961    2.6928   -4.3640 H         1 <0>         0.1131
     45 H17        -7.4071    3.3626   -4.8812 H         1 <0>         0.1173
     46 H18        -3.3768    2.0342   -4.0465 H         1 <0>         0.3831
     47 H19        -2.4575   -1.2197   -2.4425 H         1 <0>         0.4278
@<TRIPOS>BOND
     1    1    2 1
     2    1   31 1
     3    1   32 1
     4    1   33 1
     5    2    6 1
     6    2    3 2
     7    3    4 1
     8    3   13 1
     9    4    5 2
    10    4    7 1
    11    5    6 1
    12    7   12 ar
    13    7    8 ar
    14    8    9 ar
    15    8   34 1
    16    9   10 ar
    17    9   35 1
    18   10   11 ar
    19   10   36 1
    20   11   12 ar
    21   11   37 1
    22   12   38 1
    23   13   14 1
    24   13   39 1
    25   13   40 1
    26   14   15 1
    27   14   41 1
    28   14   47 1
    29   15   16 1
    30   15   42 1
    31   15   43 1
    32   16   17 1
    33   16   18 1
    34   16   30 1
    35   18   23 ar
    36   18   19 ar
    37   19   20 ar
    38   19   44 1
    39   20   21 ar
    40   20   45 1
    41   21   22 ar
    42   21   29 1
    43   22   27 1
    44   22   23 ar
    45   23   24 1
    46   24   25 1
    47   25   26 2
    48   25   27 am
    49   27   28 1
    50   30   46 1
@<TRIPOS>MOLECULE
CHEMBL1221588__1
   46    49     0     0     0
SMALL
USER_CHARGES

@<TRIPOS>ATOM
      1 C1         -0.0192    1.5012   -0.0965 C.3       1 <0>        -0.0892
      2 C2          0.0017   -0.0048   -0.0458 C.2       1 <0>         0.0763
      3 C3         -1.0758   -0.8088   -0.0640 C.2       1 <0>        -0.2344
      4 C4         -0.6242   -2.1490   -0.0015 C.2       1 <0>         0.1695
      5 N1          0.6856   -2.1283    0.0520 N.2       1 <0>        -0.3178
      6 O1          1.0992   -0.7743    0.0193 O.3       1 <0>        -0.0790
      7 C5         -1.4808   -3.3613    0.0032 C.ar      1 <0>        -0.0439
      8 C6         -2.5825   -3.4422   -0.8457 C.ar      1 <0>        -0.0781
      9 C7         -3.3756   -4.5717   -0.8372 C.ar      1 <0>        -0.1193
     10 C8         -3.0783   -5.6222    0.0121 C.ar      1 <0>        -0.1024
     11 C9         -1.9857   -5.5471    0.8570 C.ar      1 <0>        -0.1275
     12 C10        -1.1826   -4.4246    0.8526 C.ar      1 <0>        -0.0892
     13 C11        -2.5130   -0.3615   -0.1376 C.3       1 <0>         0.1274
     14 N2         -2.8854   -0.1395   -1.5412 N.3       1 <0>        -0.6803
     15 C12        -4.2832    0.2986   -1.6519 C.3       1 <0>         0.0322
     16 C13        -4.6334    0.5191   -3.1249 C.3       1 <0>         0.1764
     17 H1         -4.5003   -0.4133   -3.6735 H         1 <0>         0.1025
     18 C14        -6.0673    0.9685   -3.2385 C.ar      1 <0>        -0.2022
     19 C15        -6.3692    2.3173   -3.3134 C.ar      1 <0>        -0.0458
     20 C16        -7.6930    2.7073   -3.4177 C.ar      1 <0>        -0.2450
     21 C17        -8.7113    1.7779   -3.4482 C.ar      1 <0>         0.2916
     22 C18        -8.4317    0.3992   -3.3737 C.ar      1 <0>        -0.0408
     23 C19        -7.0808    0.0405   -3.2740 C.ar      1 <0>        -0.0467
     24 S1         -7.1363   -1.7341   -3.2140 S.3       1 <0>        -0.0962
     25 C20        -8.9075   -1.9278   -3.3281 C.2       1 <0>         0.5255
     26 O2         -9.5631   -2.9534   -3.3360 O.2       1 <0>        -0.4941
     27 N3         -9.3362   -0.6518   -3.3912 N.am      1 <0>        -0.6194
     28 H2        -10.2858   -0.4671   -3.4619 H         1 <0>         0.4088
     29 O3        -10.0007    2.1972   -3.5510 O.3       1 <0>        -0.7140
     30 O4         -3.7752    1.5213   -3.6737 O.3       1 <0>        -0.5572
     31 H3          1.0026    1.8798   -0.0716 H         1 <0>         0.0855
     32 H4         -0.5052    1.8271   -1.0161 H         1 <0>         0.0960
     33 H5         -0.5702    1.8860    0.7617 H         1 <0>         0.0945
     34 H6         -2.8157   -2.6224   -1.5090 H         1 <0>         0.1501
     35 H7         -4.2301   -4.6353   -1.4947 H         1 <0>         0.1328
     36 H8         -3.7018   -6.5040    0.0158 H         1 <0>         0.1253
     37 H9         -1.7581   -6.3702    1.5182 H         1 <0>         0.1254
     38 H10        -0.3271   -4.3689    1.5095 H         1 <0>         0.1229
     39 H11        -3.1553   -1.1305    0.2915 H         1 <0>         0.0857
     40 H12        -2.6338    0.5664    0.4215 H         1 <0>         0.0418
     41 H13        -2.2632    0.5225   -1.9801 H         1 <0>         0.3449
     42 H14        -4.9378   -0.4658   -1.2333 H         1 <0>         0.0847
     43 H15        -4.4163    1.2310   -1.1033 H         1 <0>         0.0356
     44 H16        -5.5817    3.0560   -3.2902 H         1 <0>         0.1101
     45 H17        -7.9329    3.7587   -3.4760 H         1 <0>         0.1102
     46 H18        -3.8410    2.3796   -3.2332 H         1 <0>         0.3666
@<TRIPOS>BOND
     1    1    2 1
     2    1   31 1
     3    1   32 1
     4    1   33 1
     5    2    6 1
     6    2    3 2
     7    3    4 1
     8    3   13 1
     9    4    5 2
    10    4    7 1
    11    5    6 1
    12    7   12 ar
    13    7    8 ar
    14    8    9 ar
    15    8   34 1
    16    9   10 ar
    17    9   35 1
    18   10   11 ar
    19   10   36 1
    20   11   12 ar
    21   11   37 1
    22   12   38 1
    23   13   14 1
    24   13   39 1
    25   13   40 1
    26   14   15 1
    27   14   41 1
    28   15   16 1
    29   15   42 1
    30   15   43 1
    31   16   17 1
    32   16   18 1
    33   16   30 1
    34   18   23 ar
    35   18   19 ar
    36   19   20 ar
    37   19   44 1
    38   20   21 ar
    39   20   45 1
    40   21   22 ar
    41   21   29 1
    42   22   27 1
    43   22   23 ar
    44   23   24 1
    45   24   25 1
    46   25   26 2
    47   25   27 am
    48   27   28 1
    49   30   46 1
@<TRIPOS>MOLECULE
CHEMBL38033
   37    36     0     0     0
SMALL
USER_CHARGES

@<TRIPOS>ATOM
      1 C1         -0.0187    1.5258    0.0104 C.3       1 <0>        -0.1508
      2 C2          0.0021   -0.0041    0.0020 C.3       1 <0>        -0.0800
      3 C3          0.7074   -0.4901   -1.2379 C.2       1 <0>         0.1301
      4 N1          1.7012   -1.2897   -1.1367 N.2       1 <0>        -0.3472
      5 O1          2.3640   -1.7464   -2.3017 O.3       1 <0>        -0.2451
      6 C4          3.4540   -2.6328   -2.0406 C.3       1 <0>         0.0504
      7 C5          4.0922   -3.0600   -3.3639 C.3       1 <0>         0.0873
      8 C6          5.1772   -4.1042   -3.0931 C.3       1 <0>        -0.0491
      9 N2          5.7900   -4.5144   -4.3637 N.4       1 <0>        -0.4979
     10 C7          6.8318   -5.5169   -4.1037 C.3       1 <0>         0.0548
     11 C8          6.2076   -6.7359   -3.4216 C.3       1 <0>        -0.1798
     12 C9          7.4700   -5.9441   -5.4270 C.3       1 <0>        -0.1775
     13 C10         7.9028   -4.9149   -3.1919 C.3       1 <0>        -0.1793
     14 O2          4.6751   -1.9215   -4.0010 O.3       1 <0>        -0.5464
     15 H1          1.0039    1.9031    0.0027 H         1 <0>         0.0582
     16 H2         -0.5459    1.8868   -0.8726 H         1 <0>         0.0634
     17 H3         -0.5289    1.8773    0.9072 H         1 <0>         0.0729
     18 H4          0.5293   -0.3651    0.8851 H         1 <0>         0.0846
     19 H5         -1.0205   -0.3814    0.0098 H         1 <0>         0.0986
     20 H6          0.3742   -0.1634   -2.2118 H         1 <0>         0.1193
     21 H7          4.1969   -2.1241   -1.4264 H         1 <0>         0.0701
     22 H8          3.0877   -3.5134   -1.5128 H         1 <0>         0.0751
     23 H9          3.3292   -3.4889   -4.0135 H         1 <0>         0.1318
     24 H10         5.9402   -3.6753   -2.4435 H         1 <0>         0.1414
     25 H11         4.7326   -4.9726   -2.6071 H         1 <0>         0.1481
     26 H12         5.0837   -4.9114   -4.9650 H         1 <0>         0.4284
     27 H13         5.4446   -7.1648   -4.0712 H         1 <0>         0.0835
     28 H14         6.9806   -7.4798   -3.2287 H         1 <0>         0.1072
     29 H15         5.7530   -6.4316   -2.4788 H         1 <0>         0.0817
     30 H16         7.9146   -5.0756   -5.9130 H         1 <0>         0.0831
     31 H17         8.2430   -6.6880   -5.2342 H         1 <0>         0.1076
     32 H18         6.7070   -6.3730   -6.0766 H         1 <0>         0.0831
     33 H19         7.4481   -4.6105   -2.2492 H         1 <0>         0.0811
     34 H20         8.6758   -5.6587   -2.9990 H         1 <0>         0.1072
     35 H21         8.3474   -4.0464   -3.6779 H         1 <0>         0.0832
     36 H22         5.3640   -1.4883   -3.4787 H         1 <0>         0.3896
     37 H23         6.2016   -3.7104   -4.8135 H         1 <0>         0.4312
@<TRIPOS>BOND
     1    1    2 1
     2    1   15 1
     3    1   16 1
     4    1   17 1
     5    2    3 1
     6    2   18 1
     7    2   19 1
     8    3    4 2
     9    3   20 1
    10    4    5 1
    11    5    6 1
    12    6    7 1
    13    6   21 1
    14    6   22 1
    15    7    8 1
    16    7   14 1
    17    7   23 1
    18    8    9 1
    19    8   24 1
    20    8   25 1
    21    9   10 1
    22    9   26 1
    23    9   37 1
    24   10   11 1
    25   10   12 1
    26   10   13 1
    27   11   27 1
    28   11   28 1
    29   11   29 1
    30   12   30 1
    31   12   31 1
    32   12   32 1
    33   13   33 1
    34   13   34 1
    35   13   35 1
    36   14   36 1
@<TRIPOS>MOLECULE
CHEMBL38033__1
   37    36     0     0     0
SMALL
USER_CHARGES

@<TRIPOS>ATOM
      1 C1         -0.0187    1.5258    0.0104 C.3       1 <0>        -0.1508
      2 C2          0.0021   -0.0041    0.0020 C.3       1 <0>        -0.0801
      3 C3          0.7074   -0.4901   -1.2379 C.2       1 <0>         0.1301
      4 N1          1.7012   -1.2897   -1.1367 N.2       1 <0>        -0.3472
      5 O1          2.3640   -1.7464   -2.3017 O.3       1 <0>        -0.2452
      6 C4          3.4540   -2.6328   -2.0406 C.3       1 <0>         0.0503
      7 C5          4.0922   -3.0600   -3.3639 C.3       1 <0>         0.0875
      8 C6          5.3339   -3.9079   -3.0809 C.3       1 <0>        -0.0489
      9 N2          6.0138   -4.2178   -4.3457 N.4       1 <0>        -0.4984
     10 C7          7.2061   -5.0319   -4.0740 C.3       1 <0>         0.0547
     11 C8          6.7890   -6.3338   -3.3869 C.3       1 <0>        -0.1792
     12 C9          7.9142   -5.3547   -5.3913 C.3       1 <0>        -0.1775
     13 C10         8.1568   -4.2552   -3.1609 C.3       1 <0>        -0.1797
     14 O2          3.1533   -3.8277   -4.1196 O.3       1 <0>        -0.5458
     15 H1          1.0039    1.9031    0.0027 H         1 <0>         0.0581
     16 H2         -0.5459    1.8868   -0.8726 H         1 <0>         0.0634
     17 H3         -0.5289    1.8773    0.9072 H         1 <0>         0.0729
     18 H4          0.5293   -0.3651    0.8851 H         1 <0>         0.0846
     19 H5         -1.0205   -0.3814    0.0098 H         1 <0>         0.0987
     20 H6          0.3742   -0.1634   -2.2118 H         1 <0>         0.1193
     21 H7          4.1969   -2.1241   -1.4264 H         1 <0>         0.0747
     22 H8          3.0877   -3.5134   -1.5128 H         1 <0>         0.0704
     23 H9          4.3784   -2.1747   -3.9317 H         1 <0>         0.1309
     24 H10         6.0112   -3.3546   -2.4304 H         1 <0>         0.1477
     25 H11         5.0368   -4.8354   -2.5914 H         1 <0>         0.1419
     26 H12         5.3869   -4.7300   -4.9479 H         1 <0>         0.4316
     27 H13         6.1117   -6.8871   -4.0375 H         1 <0>         0.0834
     28 H14         7.6736   -6.9378   -3.1854 H         1 <0>         0.1072
     29 H15         6.2845   -6.1038   -2.4485 H         1 <0>         0.0811
     30 H16         8.2114   -4.4272   -5.8808 H         1 <0>         0.0831
     31 H17         8.7989   -5.9587   -5.1898 H         1 <0>         0.1076
     32 H18         7.2369   -5.9080   -6.0419 H         1 <0>         0.0832
     33 H19         7.6523   -4.0253   -2.2224 H         1 <0>         0.0816
     34 H20         9.0414   -4.8592   -2.9593 H         1 <0>         0.1073
     35 H21         8.4539   -3.3277   -3.6504 H         1 <0>         0.0835
     36 H22         2.8540   -4.6322   -3.6743 H         1 <0>         0.3900
     37 H23         6.2889   -3.3593   -4.7988 H         1 <0>         0.4281
@<TRIPOS>BOND
     1    1    2 1
     2    1   15 1
     3    1   16 1
     4    1   17 1
     5    2    3 1
     6    2   18 1
     7    2   19 1
     8    3    4 2
     9    3   20 1
    10    4    5 1
    11    5    6 1
    12    6    7 1
    13    6   21 1
    14    6   22 1
    15    7    8 1
    16    7   14 1
    17    7   23 1
    18    8    9 1
    19    8   24 1
    20    8   25 1
    21    9   10 1
    22    9   26 1
    23    9   37 1
    24   10   11 1
    25   10   12 1
    26   10   13 1
    27   11   27 1
    28   11   28 1
    29   11   29 1
    30   12   30 1
    31   12   31 1
    32   12   32 1
    33   13   33 1
    34   13   34 1
    35   13   35 1
    36   14   36 1
@<TRIPOS>MOLECULE
CHEMBL1221586
   52    56     0     0     0
SMALL
USER_CHARGES

@<TRIPOS>ATOM
      1 C1         -0.0167    1.3796    0.0096 C.ar      1 <0>        -0.0377
      2 C2          1.1829    2.0705    0.0019 C.ar      1 <0>        -0.2401
      3 C3          2.3903    1.4051   -0.0137 C.ar      1 <0>         0.3004
      4 C4          2.4377   -0.0032   -0.0217 C.ar      1 <0>        -0.0286
      5 C5          1.2054   -0.6693   -0.0130 C.ar      1 <0>        -0.0476
      6 C6          0.0021   -0.0041    0.0020 C.ar      1 <0>        -0.2334
      7 C7         -1.2907   -0.7785    0.0107 C.3       1 <0>         0.1623
      8 H1         -1.1640   -1.6905    0.5940 H         1 <0>         0.1150
      9 C8         -1.6778   -1.1407   -1.4245 C.3       1 <0>        -0.0459
     10 N1         -2.9380   -1.8956   -1.4160 N.4       1 <0>        -0.5070
     11 C9         -3.3097   -2.2434   -2.7940 C.3       1 <0>        -0.0028
     12 C10        -4.6222   -3.0297   -2.7852 C.3       1 <0>        -0.0771
     13 C11        -4.4444   -4.3098   -1.9664 C.3       1 <0>        -0.1191
     14 C12        -5.7568   -5.0961   -1.9576 C.3       1 <0>        -0.0828
     15 C13        -6.1440   -5.4583   -3.3928 C.3       1 <0>        -0.1133
     16 C14        -6.3219   -4.1782   -4.2116 C.3       1 <0>        -0.0854
     17 C15        -5.0094   -3.3919   -4.2204 C.3       1 <0>        -0.0988
     18 C16        -7.4251   -3.3220   -3.5864 C.3       1 <0>        -0.1130
     19 C17        -7.0379   -2.9598   -2.1512 C.3       1 <0>        -0.0827
     20 C18        -6.8600   -4.2400   -1.3324 C.3       1 <0>        -0.1147
     21 C19        -5.7254   -2.1735   -2.1600 C.3       1 <0>        -0.1181
     22 O1         -2.3211    0.0211    0.5946 O.3       1 <0>        -0.5548
     23 S1          1.6714   -2.3835   -0.0263 S.3       1 <0>        -0.1196
     24 C20         3.4422   -2.1558   -0.0424 C.2       1 <0>         0.5379
     25 O2          4.3192   -2.9998   -0.0552 O.2       1 <0>        -0.4758
     26 N2          3.5628   -0.8137   -0.0368 N.am      1 <0>        -0.6197
     27 H2          4.4451   -0.4107   -0.0434 H         1 <0>         0.4155
     28 O3          3.5491    2.1163   -0.0218 O.3       1 <0>        -0.6864
     29 H3         -0.9553    1.9136    0.0259 H         1 <0>         0.1130
     30 H4          1.1728    3.1505    0.0078 H         1 <0>         0.1174
     31 H5         -1.8046   -0.2287   -2.0078 H         1 <0>         0.1363
     32 H6         -0.8919   -1.7507   -1.8699 H         1 <0>         0.1408
     33 H7         -2.8207   -2.7399   -0.8761 H         1 <0>         0.4240
     34 H8         -3.4365   -1.3314   -3.3773 H         1 <0>         0.1319
     35 H9         -2.5238   -2.8533   -3.2394 H         1 <0>         0.1327
     36 H10        -3.6584   -4.9198   -2.4118 H         1 <0>         0.0797
     37 H11        -4.1685   -4.0518   -0.9439 H         1 <0>         0.0590
     38 H12        -5.6301   -6.0081   -1.3743 H         1 <0>         0.0794
     39 H13        -5.3581   -6.0683   -3.8382 H         1 <0>         0.0663
     40 H14        -7.0790   -6.0185   -3.3865 H         1 <0>         0.0690
     41 H15        -6.5977   -4.4362   -5.2340 H         1 <0>         0.0794
     42 H16        -5.1361   -2.4799   -4.8037 H         1 <0>         0.0737
     43 H17        -4.2235   -4.0018   -4.6658 H         1 <0>         0.0741
     44 H18        -7.5518   -2.4100   -4.1697 H         1 <0>         0.0659
     45 H19        -8.3601   -3.8822   -3.5801 H         1 <0>         0.0690
     46 H20        -7.8238   -2.3499   -1.7058 H         1 <0>         0.0791
     47 H21        -7.7951   -4.8001   -1.3261 H         1 <0>         0.0705
     48 H22        -6.5842   -3.9819   -0.3099 H         1 <0>         0.0644
     49 H23        -5.4496   -1.9155   -1.1375 H         1 <0>         0.0598
     50 H24        -5.8521   -1.2615   -2.7433 H         1 <0>         0.0784
     51 H25        -2.4884    0.8504    0.1263 H         1 <0>         0.3835
     52 H26        -3.6655   -1.3310   -1.0037 H         1 <0>         0.4261
@<TRIPOS>BOND
     1    1    6 ar
     2    1    2 ar
     3    1   29 1
     4    2    3 ar
     5    2   30 1
     6    3    4 ar
     7    3   28 1
     8    4   26 1
     9    4    5 ar
    10    5    6 ar
    11    5   23 1
    12    6    7 1
    13    7    8 1
    14    7    9 1
    15    7   22 1
    16    9   10 1
    17    9   31 1
    18    9   32 1
    19   10   11 1
    20   10   33 1
    21   10   52 1
    22   11   12 1
    23   11   34 1
    24   11   35 1
    25   12   17 1
    26   12   21 1
    27   12   13 1
    28   13   14 1
    29   13   36 1
    30   13   37 1
    31   14   20 1
    32   14   15 1
    33   14   38 1
    34   15   16 1
    35   15   39 1
    36   15   40 1
    37   16   17 1
    38   16   18 1
    39   16   41 1
    40   17   42 1
    41   17   43 1
    42   18   19 1
    43   18   44 1
    44   18   45 1
    45   19   20 1
    46   19   21 1
    47   19   46 1
    48   20   47 1
    49   20   48 1
    50   21   49 1
    51   21   50 1
    52   22   51 1
    53   23   24 1
    54   24   25 2
    55   24   26 am
    56   26   27 1
@<TRIPOS>MOLECULE
CHEMBL1221590
   47    49     0     0     0
SMALL
USER_CHARGES

@<TRIPOS>ATOM
      1 C1         -0.0187    1.5258    0.0104 C.3       1 <0>        -0.1815
      2 C2          0.0021   -0.0041    0.0020 C.3       1 <0>         0.0604
      3 C3          0.7421   -0.5109    1.2415 C.3       1 <0>        -0.1797
      4 C4         -1.4333   -0.5336    0.0129 C.3       1 <0>        -0.0912
      5 C5         -2.1387   -0.0476    1.2528 C.ar      1 <0>        -0.0957
      6 C6         -2.0930   -0.7979    2.4129 C.ar      1 <0>        -0.1106
      7 C7         -2.7400   -0.3521    3.5502 C.ar      1 <0>        -0.1158
      8 C8         -3.4324    0.8442    3.5275 C.ar      1 <0>        -0.1082
      9 C9         -3.4773    1.5948    2.3676 C.ar      1 <0>        -0.1152
     10 C10        -2.8267    1.1511    1.2315 C.ar      1 <0>        -0.1099
     11 N1          0.6897   -0.4778   -1.2066 N.4       1 <0>        -0.4992
     12 C11         2.0678    0.0307   -1.2170 C.3       1 <0>        -0.0527
     13 C12         2.7840   -0.4628   -2.4758 C.3       1 <0>         0.1640
     14 H1          2.2568   -0.1017   -3.3589 H         1 <0>         0.1148
     15 C13         4.1978    0.0589   -2.4865 C.ar      1 <0>        -0.2329
     16 C14         5.2310   -0.7233   -1.9999 C.ar      1 <0>        -0.0380
     17 C15         6.5217   -0.2243   -2.0199 C.ar      1 <0>        -0.2397
     18 C16         6.7935    1.0340   -2.5146 C.ar      1 <0>         0.3002
     19 C17         5.7607    1.8505   -3.0158 C.ar      1 <0>        -0.0294
     20 C18         4.4677    1.3112   -2.9848 C.ar      1 <0>        -0.0473
     21 S1          3.4732    2.6027   -3.6912 S.3       1 <0>        -0.1194
     22 C19         4.7813    3.7780   -3.9999 C.2       1 <0>         0.5375
     23 O1          4.7069    4.8898   -4.4900 O.2       1 <0>        -0.4761
     24 N2          5.8699    3.1285   -3.5427 N.am      1 <0>        -0.6195
     25 H2          6.7399    3.5543   -3.5938 H         1 <0>         0.4153
     26 O2          8.0737    1.4922   -2.5183 O.3       1 <0>        -0.6867
     27 O3          2.8033   -1.8916   -2.4837 O.3       1 <0>        -0.5546
     28 H3          1.0039    1.9031    0.0027 H         1 <0>         0.0860
     29 H4         -0.5459    1.8868   -0.8726 H         1 <0>         0.0821
     30 H5         -0.5289    1.8773    0.9072 H         1 <0>         0.1054
     31 H6          0.2319   -0.1594    2.1383 H         1 <0>         0.1054
     32 H7          0.7568   -1.6008    1.2356 H         1 <0>         0.0807
     33 H8          1.7647   -0.1336    1.2338 H         1 <0>         0.0850
     34 H9         -1.9605   -0.1726   -0.8702 H         1 <0>         0.0954
     35 H10        -1.4185   -1.6235    0.0069 H         1 <0>         0.0951
     36 H11        -1.5520   -1.7325    2.4307 H         1 <0>         0.1244
     37 H12        -2.7048   -0.9386    4.4564 H         1 <0>         0.1272
     38 H13        -3.9385    1.1921    4.4159 H         1 <0>         0.1268
     39 H14        -4.0185    2.5293    2.3498 H         1 <0>         0.1275
     40 H15        -2.8587    1.7394    0.3264 H         1 <0>         0.1250
     41 H16         0.7033   -1.4867   -1.2121 H         1 <0>         0.4266
     42 H17         2.0530    1.1205   -1.2110 H         1 <0>         0.1427
     43 H18         2.5950   -0.3304   -0.3340 H         1 <0>         0.1379
     44 H19         5.0323   -1.7104   -1.6093 H         1 <0>         0.1128
     45 H20         7.3307   -0.8311   -1.6409 H         1 <0>         0.1173
     46 H21         3.2576   -2.2830   -1.7250 H         1 <0>         0.3831
     47 H22         0.2017   -0.1436   -2.0240 H         1 <0>         0.4245
@<TRIPOS>BOND
     1    1    2 1
     2    1   28 1
     3    1   29 1
     4    1   30 1
     5    2    3 1
     6    2    4 1
     7    2   11 1
     8    3   31 1
     9    3   32 1
    10    3   33 1
    11    4    5 1
    12    4   34 1
    13    4   35 1
    14    5   10 ar
    15    5    6 ar
    16    6    7 ar
    17    6   36 1
    18    7    8 ar
    19    7   37 1
    20    8    9 ar
    21    8   38 1
    22    9   10 ar
    23    9   39 1
    24   10   40 1
    25   11   12 1
    26   11   41 1
    27   11   47 1
    28   12   13 1
    29   12   42 1
    30   12   43 1
    31   13   14 1
    32   13   15 1
    33   13   27 1
    34   15   20 ar
    35   15   16 ar
    36   16   17 ar
    37   16   44 1
    38   17   18 ar
    39   17   45 1
    40   18   19 ar
    41   18   26 1
    42   19   24 1
    43   19   20 ar
    44   20   21 1
    45   21   22 1
    46   22   23 2
    47   22   24 am
    48   24   25 1
    49   27   46 1
@<TRIPOS>MOLECULE
CHEMBL13102
   50    51     0     0     0
SMALL
USER_CHARGES

@<TRIPOS>ATOM
      1 C1         -0.6167    1.5067   -2.1653 C.3       1 <0>        -0.1746
      2 C2         -0.6037   -0.0002   -2.1694 C.2       1 <0>         0.5149
      3 O1         -1.1366   -0.6088   -3.0731 O.2       1 <0>        -0.5241
      4 N1          0.0001   -0.6716   -1.1688 N.am      1 <0>        -0.6796
      5 C3         -0.0708   -2.0682   -1.1208 C.ar      1 <0>         0.1637
      6 C4         -0.1517   -2.7192    0.1032 C.ar      1 <0>        -0.1430
      7 C5         -0.2215   -4.0979    0.1472 C.ar      1 <0>        -0.0876
      8 C6         -0.2108   -4.8300   -1.0259 C.ar      1 <0>        -0.1282
      9 C7         -0.1298   -4.1848   -2.2463 C.ar      1 <0>        -0.0879
     10 C8         -0.0660   -2.8061   -2.2973 C.ar      1 <0>        -0.1193
     11 C9         -0.2871   -6.3341   -0.9742 C.3       1 <0>        -0.0970
     12 C10        -1.7525   -6.7722   -1.0142 C.3       1 <0>        -0.0075
     13 N2         -1.8268   -8.2384   -0.9638 N.4       1 <0>        -0.5036
     14 C11        -3.2338   -8.6590   -1.0022 C.3       1 <0>        -0.0418
     15 C12        -3.3112  -10.1861   -0.9497 C.3       1 <0>         0.0858
     16 H1         -2.8507  -10.5418   -0.0280 H         1 <0>         0.1362
     17 C13        -4.7766  -10.6242   -0.9896 C.3       1 <0>         0.0288
     18 O2         -4.8549  -12.0413   -0.8236 O.3       1 <0>        -0.3011
     19 C14        -6.0961  -12.5967   -0.8352 C.ar      1 <0>         0.1088
     20 C15        -7.2135  -11.7936   -1.0086 C.ar      1 <0>        -0.1914
     21 C16        -8.4744  -12.3577   -1.0204 C.ar      1 <0>        -0.1061
     22 C17        -8.6229  -13.7272   -0.8593 C.ar      1 <0>         0.0804
     23 C18        -7.5054  -14.5304   -0.6867 C.ar      1 <0>        -0.1026
     24 C19        -6.2443  -13.9669   -0.6793 C.ar      1 <0>        -0.1260
     25 O3         -9.8641  -14.2825   -0.8700 O.3       1 <0>        -0.4957
     26 O4         -2.6186  -10.7370   -2.0717 O.3       1 <0>        -0.5435
     27 H2         -1.5023    1.8610   -1.6379 H         1 <0>         0.1022
     28 H3          0.2774    1.8764   -1.6633 H         1 <0>         0.0865
     29 H4         -0.6345    1.8727   -3.1919 H         1 <0>         0.1021
     30 H5          0.4837   -0.1866   -0.4820 H         1 <0>         0.4170
     31 H6         -0.1598   -2.1480    1.0197 H         1 <0>         0.1327
     32 H7         -0.2841   -4.6048    1.0988 H         1 <0>         0.1288
     33 H8         -0.1213   -4.7594   -3.1607 H         1 <0>         0.1280
     34 H9         -0.0080   -2.3025   -3.2510 H         1 <0>         0.1450
     35 H10         0.2412   -6.7543   -1.8301 H         1 <0>         0.0963
     36 H11         0.1735   -6.6898   -0.0526 H         1 <0>         0.0963
     37 H12        -2.2808   -6.3520   -0.1584 H         1 <0>         0.1343
     38 H13        -2.2130   -6.4165   -1.9359 H         1 <0>         0.1340
     39 H14        -1.3378   -8.6274   -1.7560 H         1 <0>         0.4336
     40 H15        -3.7621   -8.2388   -0.1463 H         1 <0>         0.1471
     41 H16        -3.6943   -8.3033   -1.9238 H         1 <0>         0.1399
     42 H17        -5.3246  -10.1333   -0.1854 H         1 <0>         0.0820
     43 H18        -5.2129  -10.3461   -1.9490 H         1 <0>         0.0769
     44 H19        -7.0979  -10.7272   -1.1341 H         1 <0>         0.1285
     45 H20        -9.3445  -11.7323   -1.1548 H         1 <0>         0.1353
     46 H21        -7.6210  -15.5968   -0.5609 H         1 <0>         0.1418
     47 H22        -5.3739  -14.5927   -0.5487 H         1 <0>         0.1387
     48 H23       -10.1668  -14.5521   -1.7479 H         1 <0>         0.3940
     49 H24        -2.9753  -10.4625   -2.9276 H         1 <0>         0.3903
     50 H25        -1.4005   -8.5677   -0.1106 H         1 <0>         0.4309
@<TRIPOS>BOND
     1    1    2 1
     2    1   27 1
     3    1   28 1
     4    1   29 1
     5    2    3 2
     6    2    4 am
     7    4    5 1
     8    4   30 1
     9    5   10 ar
    10    5    6 ar
    11    6    7 ar
    12    6   31 1
    13    7    8 ar
    14    7   32 1
    15    8    9 ar
    16    8   11 1
    17    9   10 ar
    18    9   33 1
    19   10   34 1
    20   11   12 1
    21   11   35 1
    22   11   36 1
    23   12   13 1
    24   12   37 1
    25   12   38 1
    26   13   14 1
    27   13   39 1
    28   13   50 1
    29   14   15 1
    30   14   40 1
    31   14   41 1
    32   15   16 1
    33   15   17 1
    34   15   26 1
    35   17   18 1
    36   17   42 1
    37   17   43 1
    38   18   19 1
    39   19   24 ar
    40   19   20 ar
    41   20   21 ar
    42   20   44 1
    43   21   22 ar
    44   21   45 1
    45   22   23 ar
    46   22   25 1
    47   23   24 ar
    48   23   46 1
    49   24   47 1
    50   25   48 1
    51   26   49 1
@<TRIPOS>MOLECULE
CHEMBL579394
   54    56     0     0     0
SMALL
USER_CHARGES

@<TRIPOS>ATOM
      1 C1          0.3150   -2.7028    3.0376 C.3       1 <0>        -0.1307
      2 C2          0.2535   -2.1879    1.6227 C.ar      1 <0>        -0.0744
      3 C3          0.4235   -3.0586    0.5622 C.ar      1 <0>        -0.1150
      4 C4          0.3671   -2.5864   -0.7355 C.ar      1 <0>        -0.1005
      5 C5          0.1403   -1.2434   -0.9732 C.ar      1 <0>        -0.1193
      6 C6         -0.0305   -0.3732    0.0868 C.ar      1 <0>        -0.1079
      7 C7          0.0216   -0.8463    1.3849 C.ar      1 <0>        -0.1015
      8 C8         -0.1699    0.1017    2.5407 C.3       1 <0>        -0.0946
      9 C9         -1.6606    0.2147    2.8659 C.3       1 <0>         0.0621
     10 C10        -2.4017    0.8035    1.6638 C.3       1 <0>        -0.1812
     11 C11        -2.2208   -1.1739    3.1802 C.3       1 <0>        -0.1839
     12 N1         -1.8426    1.0913    4.0306 N.4       1 <0>        -0.4995
     13 C12        -3.2739    1.1999    4.3429 C.3       1 <0>        -0.0486
     14 C13        -3.4635    2.1128    5.5559 C.3       1 <0>         0.1461
     15 C14        -4.9175    2.1269    5.9517 C.ar      1 <0>        -0.1370
     16 C15        -5.7534    3.1229    5.4798 C.ar      1 <0>        -0.0815
     17 C16        -7.0881    3.1414    5.8388 C.ar      1 <0>        -0.1245
     18 C17        -7.5980    2.1592    6.6757 C.ar      1 <0>         0.1249
     19 C18        -6.7615    1.1576    7.1514 C.ar      1 <0>         0.0772
     20 C19        -5.4185    1.1397    6.7834 C.ar      1 <0>         0.1048
     21 O1         -4.6097    0.1522    7.2527 O.3       1 <0>        -0.3068
     22 C20        -4.9029   -0.3538    8.5575 C.3       1 <0>         0.0501
     23 C21        -6.3821   -0.6194    8.6774 C.2       1 <0>         0.4882
     24 O2         -6.7844   -1.5161    9.3884 O.2       1 <0>        -0.4901
     25 N2         -7.2549    0.1524    7.9989 N.am      1 <0>        -0.6550
     26 O3         -8.9109    2.1773    7.0290 O.3       1 <0>        -0.4849
     27 O4         -3.0474    3.4389    5.2237 O.3       1 <0>        -0.5445
     28 H1         -0.6837   -2.9959    3.3613 H         1 <0>         0.0776
     29 H2          0.9792   -3.5659    3.0817 H         1 <0>         0.0746
     30 H3          0.6940   -1.9189    3.6934 H         1 <0>         0.0673
     31 H4          0.6007   -4.1077    0.7479 H         1 <0>         0.1285
     32 H5          0.5006   -3.2664   -1.5638 H         1 <0>         0.1292
     33 H6          0.0969   -0.8743   -1.9873 H         1 <0>         0.1286
     34 H7         -0.2074    0.6759   -0.0988 H         1 <0>         0.1248
     35 H8          0.3646   -0.2757    3.4125 H         1 <0>         0.0993
     36 H9          0.2192    1.0841    2.2731 H         1 <0>         0.0965
     37 H10        -2.1963    0.2004    0.7794 H         1 <0>         0.1107
     38 H11        -3.4735    0.8040    1.8623 H         1 <0>         0.0816
     39 H12        -2.0633    1.8255    1.4933 H         1 <0>         0.0823
     40 H13        -1.7175   -1.5785    4.0584 H         1 <0>         0.0860
     41 H14        -3.2902   -1.0983    3.3770 H         1 <0>         0.0808
     42 H15        -2.0538   -1.8342    2.3293 H         1 <0>         0.1106
     43 H16        -1.3539    0.7030    4.8234 H         1 <0>         0.4272
     44 H17        -3.8019    1.6193    3.4864 H         1 <0>         0.1397
     45 H18        -3.6730    0.2106    4.5668 H         1 <0>         0.1478
     46 H19        -2.8642    1.7415    6.3872 H         1 <0>         0.1360
     47 H20        -5.3614    3.8898    4.8282 H         1 <0>         0.1428
     48 H21        -7.7352    3.9222    5.4674 H         1 <0>         0.1499
     49 H22        -4.3534   -1.2813    8.7189 H         1 <0>         0.1546
     50 H23        -4.6041    0.3794    9.3066 H         1 <0>         0.1086
     51 H24        -8.2100    0.0071    8.0868 H         1 <0>         0.4235
     52 H25        -9.4868    1.6852    6.4280 H         1 <0>         0.4011
     53 H26        -3.5389    3.8332    4.4902 H         1 <0>         0.3883
     54 H27        -1.4732    2.0071    3.8233 H         1 <0>         0.4300
@<TRIPOS>BOND
     1    1    2 1
     2    1   28 1
     3    1   29 1
     4    1   30 1
     5    2    7 ar
     6    2    3 ar
     7    3    4 ar
     8    3   31 1
     9    4    5 ar
    10    4   32 1
    11    5    6 ar
    12    5   33 1
    13    6    7 ar
    14    6   34 1
    15    7    8 1
    16    8    9 1
    17    8   35 1
    18    8   36 1
    19    9   10 1
    20    9   11 1
    21    9   12 1
    22   10   37 1
    23   10   38 1
    24   10   39 1
    25   11   40 1
    26   11   41 1
    27   11   42 1
    28   12   13 1
    29   12   43 1
    30   12   54 1
    31   13   14 1
    32   13   44 1
    33   13   45 1
    34   14   15 1
    35   14   27 1
    36   14   46 1
    37   15   20 ar
    38   15   16 ar
    39   16   17 ar
    40   16   47 1
    41   17   18 ar
    42   17   48 1
    43   18   19 ar
    44   18   26 1
    45   19   25 1
    46   19   20 ar
    47   20   21 1
    48   21   22 1
    49   22   23 1
    50   22   49 1
    51   22   50 1
    52   23   24 2
    53   23   25 am
    54   25   51 1
    55   26   52 1
    56   27   53 1
@<TRIPOS>MOLECULE
CHEMBL579394__1
   54    56     0     0     0
SMALL
USER_CHARGES

@<TRIPOS>ATOM
      1 C1          0.3150   -2.7028    3.0376 C.3       1 <0>        -0.1305
      2 C2          0.2535   -2.1879    1.6227 C.ar      1 <0>        -0.0748
      3 C3          0.4235   -3.0586    0.5622 C.ar      1 <0>        -0.1149
      4 C4          0.3671   -2.5864   -0.7355 C.ar      1 <0>        -0.1004
      5 C5          0.1403   -1.2434   -0.9732 C.ar      1 <0>        -0.1191
      6 C6         -0.0305   -0.3732    0.0869 C.ar      1 <0>        -0.1079
      7 C7          0.0216   -0.8463    1.3849 C.ar      1 <0>        -0.1016
      8 C8         -0.1699    0.1017    2.5407 C.3       1 <0>        -0.0946
      9 C9         -1.6606    0.2147    2.8659 C.3       1 <0>         0.0618
     10 C10        -2.4017    0.8035    1.6638 C.3       1 <0>        -0.1819
     11 C11        -2.2208   -1.1739    3.1802 C.3       1 <0>        -0.1840
     12 N1         -1.8426    1.0913    4.0306 N.4       1 <0>        -0.4990
     13 C12        -3.2739    1.1999    4.3429 C.3       1 <0>        -0.0487
     14 C13        -3.4635    2.1128    5.5559 C.3       1 <0>         0.1454
     15 C14        -4.9318    2.2242    5.8763 C.ar      1 <0>        -0.1383
     16 C15        -5.4962    1.3982    6.8316 C.ar      1 <0>        -0.0811
     17 C16        -6.8422    1.4954    7.1303 C.ar      1 <0>        -0.1248
     18 C17        -7.6363    2.4240    6.4728 C.ar      1 <0>         0.1255
     19 C18        -7.0730    3.2551    5.5130 C.ar      1 <0>         0.0764
     20 C19        -5.7154    3.1573    5.2185 C.ar      1 <0>         0.1067
     21 O1         -5.1741    3.9785    4.2793 O.3       1 <0>        -0.3039
     22 C20        -6.0203    4.3560    3.1902 C.3       1 <0>         0.0499
     23 C21        -7.3675    4.7791    3.7183 C.2       1 <0>         0.4877
     24 O2         -8.0119    5.6256    3.1355 O.2       1 <0>        -0.4896
     25 N2         -7.8564    4.2030    4.8351 N.am      1 <0>        -0.6544
     26 O3         -8.9605    2.5198    6.7665 O.3       1 <0>        -0.4864
     27 O4         -2.7713    1.5629    6.6787 O.3       1 <0>        -0.5446
     28 H1         -0.6837   -2.9960    3.3613 H         1 <0>         0.0772
     29 H2          0.9792   -3.5660    3.0817 H         1 <0>         0.0747
     30 H3          0.6940   -1.9189    3.6934 H         1 <0>         0.0674
     31 H4          0.6007   -4.1077    0.7479 H         1 <0>         0.1286
     32 H5          0.5006   -3.2664   -1.5638 H         1 <0>         0.1293
     33 H6          0.0970   -0.8743   -1.9873 H         1 <0>         0.1286
     34 H7         -0.2074    0.6759   -0.0988 H         1 <0>         0.1249
     35 H8          0.3646   -0.2757    3.4125 H         1 <0>         0.0996
     36 H9          0.2192    1.0841    2.2731 H         1 <0>         0.0967
     37 H10        -2.1962    0.2004    0.7793 H         1 <0>         0.1110
     38 H11        -3.4734    0.8040    1.8623 H         1 <0>         0.0811
     39 H12        -2.0633    1.8255    1.4933 H         1 <0>         0.0830
     40 H13        -1.7176   -1.5785    4.0584 H         1 <0>         0.0858
     41 H14        -3.2903   -1.0983    3.3770 H         1 <0>         0.0804
     42 H15        -2.0538   -1.8342    2.3293 H         1 <0>         0.1113
     43 H16        -1.3539    0.7030    4.8234 H         1 <0>         0.4297
     44 H17        -3.8019    1.6193    3.4864 H         1 <0>         0.1449
     45 H18        -3.6730    0.2106    4.5668 H         1 <0>         0.1403
     46 H19        -3.0644    3.1021    5.3320 H         1 <0>         0.1387
     47 H20        -4.8823    0.6737    7.3461 H         1 <0>         0.1427
     48 H21        -7.2768    0.8471    7.8768 H         1 <0>         0.1499
     49 H22        -5.5660    5.1856    2.6484 H         1 <0>         0.1545
     50 H23        -6.1446    3.5082    2.5165 H         1 <0>         0.1043
     51 H24        -8.7324    4.4492    5.1711 H         1 <0>         0.4241
     52 H25        -9.1618    3.1451    7.4761 H         1 <0>         0.4028
     53 H26        -3.0752    0.6814    6.9348 H         1 <0>         0.3876
     54 H27        -1.4732    2.0071    3.8233 H         1 <0>         0.4282
@<TRIPOS>BOND
     1    1    2 1
     2    1   28 1
     3    1   29 1
     4    1   30 1
     5    2    7 ar
     6    2    3 ar
     7    3    4 ar
     8    3   31 1
     9    4    5 ar
    10    4   32 1
    11    5    6 ar
    12    5   33 1
    13    6    7 ar
    14    6   34 1
    15    7    8 1
    16    8    9 1
    17    8   35 1
    18    8   36 1
    19    9   10 1
    20    9   11 1
    21    9   12 1
    22   10   37 1
    23   10   38 1
    24   10   39 1
    25   11   40 1
    26   11   41 1
    27   11   42 1
    28   12   13 1
    29   12   43 1
    30   12   54 1
    31   13   14 1
    32   13   44 1
    33   13   45 1
    34   14   15 1
    35   14   27 1
    36   14   46 1
    37   15   20 ar
    38   15   16 ar
    39   16   17 ar
    40   16   47 1
    41   17   18 ar
    42   17   48 1
    43   18   19 ar
    44   18   26 1
    45   19   25 1
    46   19   20 ar
    47   20   21 1
    48   21   22 1
    49   22   23 1
    50   22   49 1
    51   22   50 1
    52   23   24 2
    53   23   25 am
    54   25   51 1
    55   26   52 1
    56   27   53 1
@<TRIPOS>MOLECULE
CHEMBL453575
   63    65     0     0     0
SMALL
USER_CHARGES

@<TRIPOS>ATOM
      1 C1         -0.1413    1.4875   -0.0255 C.3       1 <0>        -0.1464
      2 C2         -0.0588   -0.0401   -0.0076 C.3       1 <0>        -0.0788
      3 C3          0.6525   -0.5273   -1.2715 C.3       1 <0>        -0.1365
      4 C4          0.7247   -0.4941    1.2257 C.3       1 <0>        -0.0724
      5 C5         -0.0381   -0.1214    2.4708 C.ar      1 <0>        -0.0410
      6 C6          0.3420    0.9753    3.2103 C.ar      1 <0>        -0.1182
      7 C7         -0.3672    1.3173    4.3630 C.ar      1 <0>        -0.0803
      8 C8         -1.4605    0.5485    4.7656 C.ar      1 <0>        -0.1276
      9 C9         -1.8403   -0.5404    4.0340 C.ar      1 <0>        -0.0851
     10 C10        -1.1379   -0.8859    2.8745 C.ar      1 <0>        -0.1178
     11 C11        -1.5524   -2.0573    2.0828 C.2       1 <0>         0.5158
     12 O1         -2.5707   -2.6667    2.3793 O.co2     1 <0>        -0.6855
     13 O2         -0.8781   -2.4204    1.1289 O.co2     1 <0>        -0.6658
     14 C12         0.0413    2.4975    5.1604 C.ar      1 <0>        -0.0286
     15 C13         1.1303    3.2705    4.7573 C.ar      1 <0>        -0.0808
     16 C14         1.5077    4.3678    5.5013 C.ar      1 <0>        -0.1325
     17 C15         0.8052    4.7040    6.6512 C.ar      1 <0>         0.0907
     18 C16        -0.2792    3.9362    7.0556 C.ar      1 <0>        -0.1943
     19 C17        -0.6657    2.8413    6.3126 C.ar      1 <0>        -0.0821
     20 O3          1.1797    5.7859    7.3822 O.3       1 <0>        -0.3308
     21 C18         0.4133    6.0745    8.5532 C.3       1 <0>         0.0247
     22 C19         0.9803    7.3185    9.2401 C.3       1 <0>         0.0015
     23 N1          0.8051    8.4844    8.3638 N.4       1 <0>        -0.5062
     24 C20         1.3495    9.6788    9.0233 C.3       1 <0>        -0.0431
     25 C21         1.1670   10.8932    8.1106 C.3       1 <0>         0.1352
     26 H1          0.1058   11.0407    7.9101 H         1 <0>         0.1343
     27 C22         1.7255   12.1185    8.7872 C.ar      1 <0>        -0.1284
     28 C23         3.0720   12.4137    8.6804 C.ar      1 <0>        -0.1027
     29 C24         3.5850   13.5374    9.3006 C.ar      1 <0>        -0.0966
     30 C25         2.7521   14.3665   10.0285 C.ar      1 <0>        -0.0924
     31 C26         1.4048   14.0716   10.1356 C.ar      1 <0>        -0.0317
     32 C27         0.8907   12.9499    9.5094 C.ar      1 <0>        -0.0948
     33 Cl1         0.3582   15.1123   11.0495 Cl        1 <0>        -0.0498
     34 O4          1.8581   10.6720    6.8796 O.3       1 <0>        -0.5436
     35 H2          0.8648    1.9054   -0.0602 H         1 <0>         0.0438
     36 H3         -0.6995    1.8109   -0.9041 H         1 <0>         0.0451
     37 H4         -0.6481    1.8346    0.8749 H         1 <0>         0.0488
     38 H5         -1.0649   -0.4580    0.0271 H         1 <0>         0.0836
     39 H6          1.6587   -0.1095   -1.3062 H         1 <0>         0.0410
     40 H7          0.7113   -1.6157   -1.2587 H         1 <0>         0.0617
     41 H8          0.0944   -0.2040   -2.1501 H         1 <0>         0.0437
     42 H9          0.8602   -1.5751    1.1925 H         1 <0>         0.1126
     43 H10         1.6993   -0.0060    1.2370 H         1 <0>         0.0409
     44 H11         1.1880    1.5703    2.8995 H         1 <0>         0.1152
     45 H12        -2.0071    0.8151    5.6581 H         1 <0>         0.1131
     46 H13        -2.6864   -1.1331    4.3488 H         1 <0>         0.1283
     47 H14         1.6772    3.0093    3.8634 H         1 <0>         0.1385
     48 H15         2.3510    4.9664    5.1900 H         1 <0>         0.1306
     49 H16        -0.8230    4.1999    7.9506 H         1 <0>         0.1246
     50 H17        -1.5120    2.2474    6.6250 H         1 <0>         0.1339
     51 H18        -0.6244    6.2554    8.2729 H         1 <0>         0.0865
     52 H19         0.4624    5.2274    9.2375 H         1 <0>         0.1098
     53 H20         0.4532    7.4872   10.1791 H         1 <0>         0.1503
     54 H21         2.0415    7.1709    9.4406 H         1 <0>         0.1424
     55 H22         1.2931    8.3282    7.4946 H         1 <0>         0.4401
     56 H23         0.8224    9.8475    9.9623 H         1 <0>         0.1455
     57 H24         2.4107    9.5313    9.2238 H         1 <0>         0.1385
     58 H25         3.7233   11.7659    8.1125 H         1 <0>         0.1307
     59 H26         4.6369   13.7675    9.2169 H         1 <0>         0.1421
     60 H27         3.1532   15.2440   10.5136 H         1 <0>         0.1424
     61 H28        -0.1619   12.7216    9.5890 H         1 <0>         0.1389
     62 H29         2.8095   10.5326    6.9822 H         1 <0>         0.3892
     63 H30        -0.1773    8.6210    8.1782 H         1 <0>         0.4294
@<TRIPOS>BOND
     1    1    2 1
     2    1   35 1
     3    1   36 1
     4    1   37 1
     5    2    3 1
     6    2    4 1
     7    2   38 1
     8    3   39 1
     9    3   40 1
    10    3   41 1
    11    4    5 1
    12    4   42 1
    13    4   43 1
    14    5   10 ar
    15    5    6 ar
    16    6    7 ar
    17    6   44 1
    18    7    8 ar
    19    7   14 1
    20    8    9 ar
    21    8   45 1
    22    9   10 ar
    23    9   46 1
    24   10   11 1
    25   11   12 2
    26   11   13 1
    27   14   19 ar
    28   14   15 ar
    29   15   16 ar
    30   15   47 1
    31   16   17 ar
    32   16   48 1
    33   17   18 ar
    34   17   20 1
    35   18   19 ar
    36   18   49 1
    37   19   50 1
    38   20   21 1
    39   21   22 1
    40   21   51 1
    41   21   52 1
    42   22   23 1
    43   22   53 1
    44   22   54 1
    45   23   24 1
    46   23   55 1
    47   23   63 1
    48   24   25 1
    49   24   56 1
    50   24   57 1
    51   25   26 1
    52   25   27 1
    53   25   34 1
    54   27   32 ar
    55   27   28 ar
    56   28   29 ar
    57   28   58 1
    58   29   30 ar
    59   29   59 1
    60   30   31 ar
    61   30   60 1
    62   31   32 ar
    63   31   33 1
    64   32   61 1
    65   34   62 1
@<TRIPOS>MOLECULE
CHEMBL453575__1
   62    64     0     0     0
SMALL
USER_CHARGES

@<TRIPOS>ATOM
      1 C1         -2.8406    1.4004    0.7857 C.3       1 <0>        -0.1354
      2 C2         -2.8692   -0.0841    0.4167 C.3       1 <0>        -0.0775
      3 C3         -3.8767   -0.3097   -0.7125 C.3       1 <0>        -0.1480
      4 C4         -1.4780   -0.5215   -0.0461 C.3       1 <0>        -0.0717
      5 C5         -1.4685   -2.0118   -0.2698 C.ar      1 <0>        -0.0412
      6 C6         -1.5354   -2.5179   -1.5479 C.ar      1 <0>        -0.1251
      7 C7         -1.5264   -3.8989   -1.7510 C.ar      1 <0>        -0.0604
      8 C8         -1.4496   -4.7660   -0.6597 C.ar      1 <0>        -0.1337
      9 C9         -1.3830   -4.2670    0.6097 C.ar      1 <0>        -0.0838
     10 C10        -1.3858   -2.8840    0.8208 C.ar      1 <0>        -0.1300
     11 C11        -1.3079   -2.3469    2.1905 C.2       1 <0>         0.5190
     12 O1         -1.3430   -3.1068    3.1484 O.co2     1 <0>        -0.6904
     13 O2         -1.2080   -1.1410    2.3698 O.co2     1 <0>        -0.6706
     14 C12        -1.5989   -4.4451   -3.1265 C.ar      1 <0>        -0.0580
     15 C13        -1.6704   -3.5807   -4.2189 C.ar      1 <0>        -0.0772
     16 C14        -1.7378   -4.0921   -5.4973 C.ar      1 <0>        -0.1469
     17 C15        -1.7345   -5.4663   -5.6982 C.ar      1 <0>         0.1199
     18 C16        -1.6638   -6.3297   -4.6126 C.ar      1 <0>        -0.2031
     19 C17        -1.5900   -5.8248   -3.3321 C.ar      1 <0>        -0.0770
     20 O3         -1.8010   -5.9670   -6.9590 O.3       1 <0>        -0.3189
     21 C18        -1.7934   -7.3896   -7.0934 C.3       1 <0>         0.0591
     22 C19        -1.8739   -7.7624   -8.5751 C.3       1 <0>         0.0632
     23 N1         -0.6607   -7.3007   -9.2628 N.3       1 <0>        -0.6843
     24 C20        -0.7029   -7.6420  -10.6909 C.3       1 <0>         0.0325
     25 C21         0.5745   -7.1462  -11.3717 C.3       1 <0>         0.1502
     26 H1          1.4401   -7.6211  -10.9101 H         1 <0>         0.1201
     27 C22         0.5312   -7.4964  -12.8369 C.ar      1 <0>        -0.1028
     28 C23        -0.1067   -6.6554  -13.7300 C.ar      1 <0>        -0.1079
     29 C24        -0.1468   -6.9759  -15.0739 C.ar      1 <0>        -0.1023
     30 C25         0.4506   -8.1378  -15.5258 C.ar      1 <0>        -0.1107
     31 C26         1.0889   -8.9795  -14.6327 C.ar      1 <0>        -0.0317
     32 C27         1.1340   -8.6550  -13.2883 C.ar      1 <0>        -0.0994
     33 Cl1         1.8394  -10.4387  -15.1995 Cl        1 <0>        -0.0672
     34 O4          0.6736   -5.7283  -11.2236 O.3       1 <0>        -0.5465
     35 H2         -3.8318    1.7120    1.1155 H         1 <0>         0.0419
     36 H3         -2.1229    1.5611    1.5902 H         1 <0>         0.0607
     37 H4         -2.5469    1.9858   -0.0855 H         1 <0>         0.0407
     38 H5         -3.1630   -0.6695    1.2880 H         1 <0>         0.0814
     39 H6         -3.6298    0.3373   -1.5542 H         1 <0>         0.0442
     40 H7         -3.8380   -1.3513   -1.0313 H         1 <0>         0.0521
     41 H8         -4.8799   -0.0757   -0.3564 H         1 <0>         0.0433
     42 H9         -1.2283   -0.0127   -0.9772 H         1 <0>         0.0400
     43 H10        -0.7436   -0.2639    0.7170 H         1 <0>         0.1115
     44 H11        -1.5952   -1.8475   -2.3925 H         1 <0>         0.1148
     45 H12        -1.4431   -5.8340   -0.8198 H         1 <0>         0.1132
     46 H13        -1.3241   -4.9409    1.4516 H         1 <0>         0.1251
     47 H14        -1.6733   -2.5120   -4.0634 H         1 <0>         0.1321
     48 H15        -1.7935   -3.4233   -6.3435 H         1 <0>         0.1281
     49 H16        -1.6622   -7.3979   -4.7722 H         1 <0>         0.1254
     50 H17        -1.5302   -6.4966   -2.4886 H         1 <0>         0.1282
     51 H18        -0.8734   -7.7899   -6.6675 H         1 <0>         0.0731
     52 H19        -2.6504   -7.8089   -6.5662 H         1 <0>         0.0672
     53 H20        -1.9576   -8.8448   -8.6734 H         1 <0>         0.0913
     54 H21        -2.7477   -7.2883   -9.0221 H         1 <0>         0.0411
     55 H22        -0.5259   -6.3093   -9.1318 H         1 <0>         0.3586
     56 H23        -0.7785   -8.7235  -10.8039 H         1 <0>         0.0838
     57 H24        -1.5685   -7.1671  -11.1526 H         1 <0>         0.0355
     58 H25        -0.5742   -5.7480  -13.3773 H         1 <0>         0.1273
     59 H26        -0.6452   -6.3187  -15.7710 H         1 <0>         0.1345
     60 H27         0.4186   -8.3885  -16.5758 H         1 <0>         0.1344
     61 H28         1.6361   -9.3096  -12.5912 H         1 <0>         0.1366
     62 H29        -0.0649   -5.2397  -11.6121 H         1 <0>         0.3717
@<TRIPOS>BOND
     1    1    2 1
     2    1   35 1
     3    1   36 1
     4    1   37 1
     5    2    3 1
     6    2    4 1
     7    2   38 1
     8    3   39 1
     9    3   40 1
    10    3   41 1
    11    4    5 1
    12    4   42 1
    13    4   43 1
    14    5   10 ar
    15    5    6 ar
    16    6    7 ar
    17    6   44 1
    18    7    8 ar
    19    7   14 1
    20    8    9 ar
    21    8   45 1
    22    9   10 ar
    23    9   46 1
    24   10   11 1
    25   11   12 2
    26   11   13 1
    27   14   19 ar
    28   14   15 ar
    29   15   16 ar
    30   15   47 1
    31   16   17 ar
    32   16   48 1
    33   17   18 ar
    34   17   20 1
    35   18   19 ar
    36   18   49 1
    37   19   50 1
    38   20   21 1
    39   21   22 1
    40   21   51 1
    41   21   52 1
    42   22   23 1
    43   22   53 1
    44   22   54 1
    45   23   24 1
    46   23   55 1
    47   24   25 1
    48   24   56 1
    49   24   57 1
    50   25   26 1
    51   25   27 1
    52   25   34 1
    53   27   32 ar
    54   27   28 ar
    55   28   29 ar
    56   28   58 1
    57   29   30 ar
    58   29   59 1
    59   30   31 ar
    60   30   60 1
    61   31   32 ar
    62   31   33 1
    63   32   61 1
    64   34   62 1
@<TRIPOS>MOLECULE
CHEMBL324665
   45    47     0     0     0
SMALL
USER_CHARGES

@<TRIPOS>ATOM
      1 C1         -0.0187    1.5258    0.0104 C.3       1 <0>        -0.1852
      2 C2          0.0021   -0.0041    0.0020 C.3       1 <0>         0.0240
      3 C3          0.7421   -0.5109    1.2415 C.3       1 <0>        -0.1868
      4 N1         -1.3761   -0.5125    0.0124 N.4       1 <0>        -0.5024
      5 C4         -1.3591   -1.9758   -0.1163 C.3       1 <0>        -0.0453
      6 C5         -2.7945   -2.5054   -0.1054 C.3       1 <0>         0.0864
      7 C6         -2.7738   -4.0352   -0.1138 C.3       1 <0>         0.0284
      8 O1         -4.1082   -4.5304    0.0137 O.3       1 <0>        -0.2956
      9 C7         -4.2670   -5.8796    0.0235 C.ar      1 <0>         0.1788
     10 C8         -3.1650   -6.7102   -0.0813 C.ar      1 <0>        -0.2457
     11 C9         -3.3264   -8.0859   -0.0714 C.ar      1 <0>        -0.0444
     12 C10        -4.5817   -8.6448    0.0420 C.ar      1 <0>        -0.1709
     13 C11        -5.7038   -7.8280    0.1481 C.ar      1 <0>         0.1820
     14 C12        -5.5431   -6.4351    0.1450 C.ar      1 <0>        -0.1299
     15 C13        -6.8926   -5.8573    0.2780 C.ar      1 <0>        -0.0925
     16 C14        -7.3759   -4.5518    0.3302 C.ar      1 <0>        -0.0606
     17 C15        -8.7293   -4.3274    0.4621 C.ar      1 <0>        -0.1467
     18 C16        -9.6097   -5.3954    0.5433 C.ar      1 <0>        -0.0825
     19 C17        -9.1450   -6.6920    0.4935 C.ar      1 <0>        -0.1380
     20 C18        -7.7821   -6.9389    0.3597 C.ar      1 <0>         0.1337
     21 N2         -7.0524   -8.1113    0.2698 N.pl3     1 <0>        -0.6120
     22 H1         -7.4310   -9.0039    0.3007 H         1 <0>         0.4227
     23 O2         -3.4857   -2.0320   -1.2631 O.3       1 <0>        -0.5425
     24 H2          1.0039    1.9031    0.0027 H         1 <0>         0.1080
     25 H3         -0.5459    1.8868   -0.8726 H         1 <0>         0.0830
     26 H4         -0.5289    1.8773    0.9072 H         1 <0>         0.0828
     27 H5          0.5123   -0.3556   -0.8948 H         1 <0>         0.1393
     28 H6          0.7568   -1.6008    1.2356 H         1 <0>         0.0804
     29 H7          1.7647   -0.1336    1.2338 H         1 <0>         0.1078
     30 H8          0.2319   -0.1594    2.1383 H         1 <0>         0.0834
     31 H9         -1.8225   -0.2564    0.8803 H         1 <0>         0.4283
     32 H10        -0.8769   -2.2525   -1.0538 H         1 <0>         0.1401
     33 H11        -0.8062   -2.4075    0.7180 H         1 <0>         0.1468
     34 H12        -3.3047   -2.1538    0.7914 H         1 <0>         0.1343
     35 H13        -2.3435   -4.3876   -1.0513 H         1 <0>         0.0784
     36 H14        -2.1714   -4.3950    0.7203 H         1 <0>         0.0825
     37 H15        -2.1765   -6.2847   -0.1714 H         1 <0>         0.1277
     38 H16        -2.4610   -8.7267   -0.1536 H         1 <0>         0.1353
     39 H17        -4.6947   -9.7188    0.0482 H         1 <0>         0.1306
     40 H18        -6.6921   -3.7182    0.2678 H         1 <0>         0.1252
     41 H19        -9.1054   -3.3159    0.5026 H         1 <0>         0.1276
     42 H20       -10.6685   -5.2097    0.6469 H         1 <0>         0.1321
     43 H21        -9.8391   -7.5169    0.5580 H         1 <0>         0.1272
     44 H22        -3.0863   -2.3073   -2.0996 H         1 <0>         0.3904
     45 H23        -1.8879   -0.1129   -0.7598 H         1 <0>         0.4337
@<TRIPOS>BOND
     1    1    2 1
     2    1   24 1
     3    1   25 1
     4    1   26 1
     5    2    3 1
     6    2    4 1
     7    2   27 1
     8    3   28 1
     9    3   29 1
    10    3   30 1
    11    4    5 1
    12    4   31 1
    13    4   45 1
    14    5    6 1
    15    5   32 1
    16    5   33 1
    17    6    7 1
    18    6   23 1
    19    6   34 1
    20    7    8 1
    21    7   35 1
    22    7   36 1
    23    8    9 1
    24    9   14 ar
    25    9   10 ar
    26   10   11 ar
    27   10   37 1
    28   11   12 ar
    29   11   38 1
    30   12   13 ar
    31   12   39 1
    32   13   21 1
    33   13   14 ar
    34   14   15 1
    35   15   20 ar
    36   15   16 ar
    37   16   17 ar
    38   16   40 1
    39   17   18 ar
    40   17   41 1
    41   18   19 ar
    42   18   42 1
    43   19   20 ar
    44   19   43 1
    45   20   21 1
    46   21   22 1
    47   23   44 1
@<TRIPOS>MOLECULE
CHEMBL324665__1
   45    47     0     0     0
SMALL
USER_CHARGES

@<TRIPOS>ATOM
      1 C1         -0.0187    1.5258    0.0104 C.3       1 <0>        -0.1852
      2 C2          0.0021   -0.0041    0.0020 C.3       1 <0>         0.0238
      3 C3          0.7421   -0.5109    1.2415 C.3       1 <0>        -0.1864
      4 N1         -1.3761   -0.5125    0.0124 N.4       1 <0>        -0.5019
      5 C4         -1.3591   -1.9758   -0.1163 C.3       1 <0>        -0.0457
      6 C5         -2.7945   -2.5054   -0.1054 C.3       1 <0>         0.0861
      7 C6         -2.7769   -4.0294   -0.2395 C.3       1 <0>         0.0285
      8 O1         -4.1170   -4.5137   -0.3464 O.3       1 <0>        -0.2956
      9 C7         -4.2793   -5.8565   -0.4731 C.ar      1 <0>         0.1788
     10 C8         -3.1758   -6.6918   -0.4885 C.ar      1 <0>        -0.2457
     11 C9         -3.3407   -8.0610   -0.6177 C.ar      1 <0>        -0.0444
     12 C10        -4.6008   -8.6088   -0.7326 C.ar      1 <0>        -0.1709
     13 C11        -5.7243   -7.7872   -0.7199 C.ar      1 <0>         0.1820
     14 C12        -5.5610   -6.4014   -0.5826 C.ar      1 <0>        -0.1299
     15 C13        -6.9141   -5.8168   -0.5960 C.ar      1 <0>        -0.0926
     16 C14        -7.3963   -4.5131   -0.5039 C.ar      1 <0>        -0.0606
     17 C15        -8.7540   -4.2805   -0.5487 C.ar      1 <0>        -0.1467
     18 C16        -9.6398   -5.3384   -0.6844 C.ar      1 <0>        -0.0825
     19 C17        -9.1763   -6.6331   -0.7762 C.ar      1 <0>        -0.1380
     20 C18        -7.8090   -6.8882   -0.7339 C.ar      1 <0>         0.1337
     21 N2         -7.0771   -8.0597   -0.8167 N.pl3     1 <0>        -0.6120
     22 H1         -7.4586   -8.9461   -0.9156 H         1 <0>         0.4227
     23 O2         -3.4268   -2.1426    1.1237 O.3       1 <0>        -0.5429
     24 H2          1.0039    1.9031    0.0027 H         1 <0>         0.1081
     25 H3         -0.5459    1.8868   -0.8726 H         1 <0>         0.0830
     26 H4         -0.5289    1.8773    0.9072 H         1 <0>         0.0828
     27 H5          0.5123   -0.3556   -0.8948 H         1 <0>         0.1398
     28 H6          0.7568   -1.6008    1.2356 H         1 <0>         0.0798
     29 H7          1.7647   -0.1336    1.2338 H         1 <0>         0.1078
     30 H8          0.2319   -0.1594    2.1383 H         1 <0>         0.0833
     31 H9         -1.8225   -0.2564    0.8803 H         1 <0>         0.4313
     32 H10        -0.8769   -2.2525   -1.0538 H         1 <0>         0.1467
     33 H11        -0.8062   -2.4075    0.7180 H         1 <0>         0.1404
     34 H12        -3.3474   -2.0736   -0.9397 H         1 <0>         0.1354
     35 H13        -2.2171   -4.3091   -1.1320 H         1 <0>         0.0829
     36 H14        -2.3018   -4.4659    0.6390 H         1 <0>         0.0779
     37 H15        -2.1835   -6.2749   -0.4000 H         1 <0>         0.1277
     38 H16        -2.4742   -8.7055   -0.6288 H         1 <0>         0.1352
     39 H17        -4.7163   -9.6779   -0.8331 H         1 <0>         0.1306
     40 H18        -6.7085   -3.6873   -0.3974 H         1 <0>         0.1252
     41 H19        -9.1294   -3.2703   -0.4774 H         1 <0>         0.1276
     42 H20       -10.7021   -5.1464   -0.7182 H         1 <0>         0.1321
     43 H21        -9.8747   -7.4502   -0.8813 H         1 <0>         0.1272
     44 H22        -2.9873   -2.4932    1.9105 H         1 <0>         0.3897
     45 H23        -1.8879   -0.1129   -0.7598 H         1 <0>         0.4307
@<TRIPOS>BOND
     1    1    2 1
     2    1   24 1
     3    1   25 1
     4    1   26 1
     5    2    3 1
     6    2    4 1
     7    2   27 1
     8    3   28 1
     9    3   29 1
    10    3   30 1
    11    4    5 1
    12    4   31 1
    13    4   45 1
    14    5    6 1
    15    5   32 1
    16    5   33 1
    17    6    7 1
    18    6   23 1
    19    6   34 1
    20    7    8 1
    21    7   35 1
    22    7   36 1
    23    8    9 1
    24    9   14 ar
    25    9   10 ar
    26   10   11 ar
    27   10   37 1
    28   11   12 ar
    29   11   38 1
    30   12   13 ar
    31   12   39 1
    32   13   21 1
    33   13   14 ar
    34   14   15 1
    35   15   20 ar
    36   15   16 ar
    37   16   17 ar
    38   16   40 1
    39   17   18 ar
    40   17   41 1
    41   18   19 ar
    42   18   42 1
    43   19   20 ar
    44   19   43 1
    45   20   21 1
    46   21   22 1
    47   23   44 1
@<TRIPOS>MOLECULE
CHEMBL95784
   59    61     0     0     0
SMALL
USER_CHARGES

@<TRIPOS>ATOM
      1 C1         -0.0225    1.8097    0.0120 C.3       1 <0>        -0.6368
      2 S1          0.0021   -0.0041    0.0020 S.o2      1 <0>         2.5318
      3 O1          0.8352   -0.4880    1.0465 O.2       1 <0>        -1.0220
      4 O2         -1.3147   -0.5105   -0.1678 O.2       1 <0>        -1.0220
      5 N1          0.7947   -0.4113   -1.3938 N.2       1 <0>        -1.0846
      6 C2          0.9911   -1.7494   -1.7167 C.ar      1 <0>         0.3224
      7 C3          0.5158   -2.7457   -0.8684 C.ar      1 <0>        -0.2699
      8 C4          0.7086   -4.0708   -1.1853 C.ar      1 <0>         0.0069
      9 C5          1.3825   -4.4162   -2.3604 C.ar      1 <0>        -0.2783
     10 C6          1.8586   -3.4134   -3.2101 C.ar      1 <0>        -0.0404
     11 C7          1.6576   -2.0901   -2.8906 C.ar      1 <0>        -0.1938
     12 C8          1.5913   -5.8358   -2.7027 C.2       1 <0>         0.5829
     13 O3          1.1770   -6.7070   -1.9625 O.2       1 <0>        -0.5533
     14 N2          2.2412   -6.1672   -3.8360 N.am      1 <0>        -0.7436
     15 C9          2.4485   -7.5770   -4.1760 C.3       1 <0>         0.0989
     16 C10         3.2061   -7.6758   -5.5016 C.3       1 <0>        -0.0214
     17 N3          3.4140   -9.0895   -5.8426 N.4       1 <0>        -0.4993
     18 C11         4.1413   -9.1844   -7.1154 C.3       1 <0>        -0.0402
     19 C12         4.3578  -10.6568   -7.4705 C.3       1 <0>         0.0858
     20 C13         5.2219  -10.7561   -8.7292 C.3       1 <0>         0.0289
     21 O4          5.5212  -12.1280   -8.9945 O.3       1 <0>        -0.2974
     22 C14         6.2855  -12.3925  -10.0854 C.ar      1 <0>         0.1381
     23 C15         6.7386  -11.3710  -10.8722 C.ar      1 <0>        -0.2174
     24 C16         7.5230  -11.6255  -11.9935 C.ar      1 <0>        -0.0820
     25 C17         7.8622  -12.8982  -12.3394 C.ar      1 <0>        -0.1331
     26 C18         7.4165  -13.9764  -11.5562 C.ar      1 <0>        -0.0205
     27 C19         6.6219  -13.7221  -10.4108 C.ar      1 <0>        -0.0673
     28 C20         6.1804  -14.7992   -9.6256 C.ar      1 <0>        -0.0896
     29 C21         6.5246  -16.0703   -9.9707 C.ar      1 <0>        -0.1217
     30 C22         7.3104  -16.3207  -11.0941 C.ar      1 <0>        -0.1001
     31 C23         7.7475  -15.3024  -11.8844 C.ar      1 <0>        -0.1139
     32 O5          3.0943  -11.2799   -7.7097 O.3       1 <0>        -0.5424
     33 H1          1.0001    2.1870    0.0043 H         1 <0>         0.1178
     34 H2         -0.5497    2.1708   -0.8711 H         1 <0>         0.1178
     35 H3         -0.5327    2.1613    0.9088 H         1 <0>         0.1068
     36 H4         -0.0045   -2.4783    0.0394 H         1 <0>         0.1108
     37 H5          0.3399   -4.8433   -0.5266 H         1 <0>         0.1155
     38 H6          2.3799   -3.6770   -4.1185 H         1 <0>         0.1014
     39 H7          2.0210   -1.3149   -3.5490 H         1 <0>         0.1189
     40 H8          2.5717   -5.4722   -4.4265 H         1 <0>         0.4045
     41 H9          3.0288   -8.0590   -3.3892 H         1 <0>         0.0848
     42 H10         1.4829   -8.0735   -4.2714 H         1 <0>         0.0849
     43 H11         2.6258   -7.1939   -6.2885 H         1 <0>         0.1398
     44 H12         4.1717   -7.1793   -5.4062 H         1 <0>         0.1403
     45 H13         3.9511   -9.5357   -5.1142 H         1 <0>         0.4332
     46 H14         3.5611   -8.7024   -7.9022 H         1 <0>         0.1419
     47 H15         5.1069   -8.6879   -7.0199 H         1 <0>         0.1480
     48 H16         4.8603  -11.1597   -6.6442 H         1 <0>         0.1358
     49 H17         4.6814  -10.3319   -9.5753 H         1 <0>         0.0789
     50 H18         6.1498  -10.2046   -8.5774 H         1 <0>         0.0835
     51 H19         6.4843  -10.3520  -10.6205 H         1 <0>         0.1247
     52 H20         7.8678  -10.8004  -12.5992 H         1 <0>         0.1280
     53 H21         8.4712  -13.0782  -13.2129 H         1 <0>         0.1319
     54 H22         5.5710  -14.6202   -8.7520 H         1 <0>         0.1308
     55 H23         6.1839  -16.8969   -9.3648 H         1 <0>         0.1271
     56 H24         7.5698  -17.3384  -11.3458 H         1 <0>         0.1281
     57 H25         8.3555  -15.5112  -12.7522 H         1 <0>         0.1331
     58 H26         2.5907  -10.8829   -8.4336 H         1 <0>         0.3908
     59 H27         2.5201   -9.5492   -5.9309 H         1 <0>         0.4364
@<TRIPOS>BOND
     1    1    2 1
     2    1   33 1
     3    1   34 1
     4    1   35 1
     5    2    3 2
     6    2    4 2
     7    2    5 1
     8    5    6 1
     9    6   11 ar
    10    6    7 ar
    11    7    8 ar
    12    7   36 1
    13    8    9 ar
    14    8   37 1
    15    9   10 ar
    16    9   12 1
    17   10   11 ar
    18   10   38 1
    19   11   39 1
    20   12   13 2
    21   12   14 am
    22   14   15 1
    23   14   40 1
    24   15   16 1
    25   15   41 1
    26   15   42 1
    27   16   17 1
    28   16   43 1
    29   16   44 1
    30   17   18 1
    31   17   45 1
    32   17   59 1
    33   18   19 1
    34   18   46 1
    35   18   47 1
    36   19   20 1
    37   19   32 1
    38   19   48 1
    39   20   21 1
    40   20   49 1
    41   20   50 1
    42   21   22 1
    43   22   27 ar
    44   22   23 ar
    45   23   24 ar
    46   23   51 1
    47   24   25 ar
    48   24   52 1
    49   25   26 ar
    50   25   53 1
    51   26   31 ar
    52   26   27 ar
    53   27   28 ar
    54   28   29 ar
    55   28   54 1
    56   29   30 ar
    57   29   55 1
    58   30   31 ar
    59   30   56 1
    60   31   57 1
    61   32   58 1
@<TRIPOS>MOLECULE
CHEMBL95784__1
   59    61     0     0     0
SMALL
USER_CHARGES

@<TRIPOS>ATOM
      1 C1         -0.0225    1.8097    0.0120 C.3       1 <0>        -0.6368
      2 S1          0.0021   -0.0041    0.0020 S.o2      1 <0>         2.5317
      3 O1          0.8352   -0.4880    1.0465 O.2       1 <0>        -1.0220
      4 O2         -1.3147   -0.5105   -0.1678 O.2       1 <0>        -1.0220
      5 N1          0.7947   -0.4113   -1.3938 N.2       1 <0>        -1.0846
      6 C2          0.9911   -1.7494   -1.7167 C.ar      1 <0>         0.3224
      7 C3          0.5158   -2.7457   -0.8684 C.ar      1 <0>        -0.2699
      8 C4          0.7086   -4.0708   -1.1853 C.ar      1 <0>         0.0069
      9 C5          1.3825   -4.4162   -2.3604 C.ar      1 <0>        -0.2783
     10 C6          1.8586   -3.4134   -3.2101 C.ar      1 <0>        -0.0404
     11 C7          1.6576   -2.0901   -2.8906 C.ar      1 <0>        -0.1938
     12 C8          1.5913   -5.8358   -2.7027 C.2       1 <0>         0.5829
     13 O3          1.1770   -6.7070   -1.9625 O.2       1 <0>        -0.5532
     14 N2          2.2412   -6.1672   -3.8360 N.am      1 <0>        -0.7436
     15 C9          2.4485   -7.5770   -4.1760 C.3       1 <0>         0.0990
     16 C10         3.2061   -7.6758   -5.5016 C.3       1 <0>        -0.0213
     17 N3          3.4140   -9.0895   -5.8426 N.4       1 <0>        -0.4987
     18 C11         4.1413   -9.1844   -7.1154 C.3       1 <0>        -0.0404
     19 C12         4.3578  -10.6568   -7.4705 C.3       1 <0>         0.0856
     20 C13         5.1153  -10.7557   -8.7961 C.3       1 <0>         0.0289
     21 O4          5.2157  -12.1267   -9.1863 O.3       1 <0>        -0.2973
     22 C14         5.8644  -12.3907  -10.3498 C.ar      1 <0>         0.1381
     23 C15         6.3923  -11.3703  -11.0901 C.ar      1 <0>        -0.2174
     24 C16         7.0600  -11.6244  -12.2847 C.ar      1 <0>        -0.0820
     25 C17         7.2074  -12.8954  -12.7505 C.ar      1 <0>        -0.1331
     26 C18         6.6794  -13.9724  -12.0186 C.ar      1 <0>        -0.0205
     27 C19         6.0030  -13.7194  -10.7994 C.ar      1 <0>        -0.0673
     28 C20         5.4793  -14.7960  -10.0656 C.ar      1 <0>        -0.0895
     29 C21         5.6319  -16.0662  -10.5310 C.ar      1 <0>        -0.1217
     30 C22         6.3015  -16.3162  -11.7274 C.ar      1 <0>        -0.1001
     31 C23         6.8129  -15.2967  -12.4702 C.ar      1 <0>        -0.1139
     32 O5          5.1185  -11.2887   -6.4389 O.3       1 <0>        -0.5431
     33 H1          1.0001    2.1870    0.0043 H         1 <0>         0.1178
     34 H2         -0.5497    2.1708   -0.8711 H         1 <0>         0.1178
     35 H3         -0.5327    2.1613    0.9088 H         1 <0>         0.1068
     36 H4         -0.0045   -2.4783    0.0394 H         1 <0>         0.1108
     37 H5          0.3399   -4.8433   -0.5266 H         1 <0>         0.1155
     38 H6          2.3799   -3.6770   -4.1185 H         1 <0>         0.1014
     39 H7          2.0210   -1.3149   -3.5490 H         1 <0>         0.1189
     40 H8          2.5717   -5.4722   -4.4265 H         1 <0>         0.4045
     41 H9          3.0288   -8.0590   -3.3892 H         1 <0>         0.0849
     42 H10         1.4829   -8.0735   -4.2714 H         1 <0>         0.0849
     43 H11         2.6258   -7.1939   -6.2885 H         1 <0>         0.1403
     44 H12         4.1717   -7.1793   -5.4062 H         1 <0>         0.1397
     45 H13         3.9511   -9.5357   -5.1142 H         1 <0>         0.4359
     46 H14         3.5611   -8.7024   -7.9022 H         1 <0>         0.1485
     47 H15         5.1069   -8.6879   -7.0199 H         1 <0>         0.1413
     48 H16         3.3922  -11.1534   -7.5659 H         1 <0>         0.1367
     49 H17         4.5788  -10.1978   -9.5636 H         1 <0>         0.0838
     50 H18         6.1149  -10.3381   -8.6754 H         1 <0>         0.0786
     51 H19         6.2897  -10.3526  -10.7435 H         1 <0>         0.1247
     52 H20         7.4675  -10.8002  -12.8513 H         1 <0>         0.1279
     53 H21         7.7280  -13.0751  -13.6796 H         1 <0>         0.1320
     54 H22         4.9583  -14.6173   -9.1366 H         1 <0>         0.1308
     55 H23         5.2284  -16.8925   -9.9646 H         1 <0>         0.1271
     56 H24         6.4093  -17.3332  -12.0743 H         1 <0>         0.1281
     57 H25         7.3291  -15.5052  -13.3957 H         1 <0>         0.1331
     58 H26         5.9917  -10.8977   -6.2984 H         1 <0>         0.3905
     59 H27         2.5201   -9.5492   -5.9309 H         1 <0>         0.4335
@<TRIPOS>BOND
     1    1    2 1
     2    1   33 1
     3    1   34 1
     4    1   35 1
     5    2    3 2
     6    2    4 2
     7    2    5 1
     8    5    6 1
     9    6   11 ar
    10    6    7 ar
    11    7    8 ar
    12    7   36 1
    13    8    9 ar
    14    8   37 1
    15    9   10 ar
    16    9   12 1
    17   10   11 ar
    18   10   38 1
    19   11   39 1
    20   12   13 2
    21   12   14 am
    22   14   15 1
    23   14   40 1
    24   15   16 1
    25   15   41 1
    26   15   42 1
    27   16   17 1
    28   16   43 1
    29   16   44 1
    30   17   18 1
    31   17   45 1
    32   17   59 1
    33   18   19 1
    34   18   46 1
    35   18   47 1
    36   19   20 1
    37   19   32 1
    38   19   48 1
    39   20   21 1
    40   20   49 1
    41   20   50 1
    42   21   22 1
    43   22   27 ar
    44   22   23 ar
    45   23   24 ar
    46   23   51 1
    47   24   25 ar
    48   24   52 1
    49   25   26 ar
    50   25   53 1
    51   26   31 ar
    52   26   27 ar
    53   27   28 ar
    54   28   29 ar
    55   28   54 1
    56   29   30 ar
    57   29   55 1
    58   30   31 ar
    59   30   56 1
    60   31   57 1
    61   32   58 1
@<TRIPOS>MOLECULE
CHEMBL466713
   57    59     0     0     0
SMALL
USER_CHARGES

@<TRIPOS>ATOM
      1 C1          1.9858   -5.7239    4.2933 C.ar      1 <0>        -0.0735
      2 C2          1.6612   -7.0455    4.0269 C.ar      1 <0>        -0.1692
      3 C3          1.2524   -7.3950    2.7540 C.ar      1 <0>         0.1047
      4 N1          1.1700   -6.4889    1.7993 N.ar      1 <0>        -0.4616
      5 C4          1.4706   -5.2236    2.0164 C.ar      1 <0>         0.1311
      6 C5          1.8865   -4.7998    3.2646 C.ar      1 <0>        -0.1643
      7 C6          1.3600   -4.2280    0.8905 C.3       1 <0>        -0.0891
      8 C7          2.1808   -4.7016   -0.2813 C.2       1 <0>         0.5229
      9 O1          2.7952   -5.7448   -0.2092 O.2       1 <0>        -0.4956
     10 N2          2.2322   -3.9658   -1.4093 N.am      1 <0>        -0.6815
     11 C8          3.0695   -4.3547   -2.4607 C.ar      1 <0>         0.1686
     12 C9          3.7067   -3.3937   -3.2348 C.ar      1 <0>        -0.1439
     13 C10         4.5325   -3.7809   -4.2719 C.ar      1 <0>        -0.0880
     14 C11         4.7252   -5.1237   -4.5400 C.ar      1 <0>        -0.1294
     15 C12         4.0918   -6.0830   -3.7714 C.ar      1 <0>        -0.0879
     16 C13         3.2696   -5.7025   -2.7289 C.ar      1 <0>        -0.1184
     17 C14         5.6269   -5.5426   -5.6724 C.3       1 <0>        -0.0966
     18 C15         7.0570   -5.7032   -5.1529 C.3       1 <0>        -0.0076
     19 N3          7.9360   -6.1115   -6.2568 N.4       1 <0>        -0.5035
     20 C16         9.3091   -6.2657   -5.7581 C.3       1 <0>        -0.0422
     21 C17        10.2246   -6.6909   -6.9078 C.3       1 <0>         0.0868
     22 H1         10.2049   -5.9304   -7.6883 H         1 <0>         0.1366
     23 C18        11.6548   -6.8515   -6.3883 C.3       1 <0>         0.0255
     24 O2         12.5299   -7.1346   -7.4820 O.3       1 <0>        -0.2967
     25 C19        13.8461   -7.3068   -7.1904 C.ar      1 <0>         0.0660
     26 C20        14.7628   -7.5798   -8.2009 C.ar      1 <0>        -0.0995
     27 C21        16.0937   -7.7475   -7.8548 C.ar      1 <0>        -0.1267
     28 C22        16.4647   -7.6391   -6.5274 C.ar      1 <0>         0.0731
     29 N4         15.5706   -7.3794   -5.5938 N.ar      1 <0>        -0.4492
     30 C23        14.2956   -7.2073   -5.8820 C.ar      1 <0>         0.0182
     31 O3          9.7699   -7.9352   -7.4435 O.3       1 <0>        -0.5436
     32 H2          2.3041   -5.4208    5.2798 H         1 <0>         0.1378
     33 H3          1.7274   -7.7922    4.8044 H         1 <0>         0.1378
     34 H4          0.9979   -8.4222    2.5385 H         1 <0>         0.1573
     35 H5          2.1310   -3.7620    3.4363 H         1 <0>         0.1354
     36 H6          0.3166   -4.1348    0.5892 H         1 <0>         0.1191
     37 H7          1.7296   -3.2587    1.2250 H         1 <0>         0.1157
     38 H8          1.6888   -3.1666   -1.4922 H         1 <0>         0.4159
     39 H9          3.5564   -2.3448   -3.0261 H         1 <0>         0.1323
     40 H10         5.0281   -3.0340   -4.8744 H         1 <0>         0.1280
     41 H11         4.2440   -7.1310   -3.9835 H         1 <0>         0.1271
     42 H12         2.7792   -6.4523   -2.1257 H         1 <0>         0.1465
     43 H13         5.2801   -6.4917   -6.0810 H         1 <0>         0.0960
     44 H14         5.6071   -4.7820   -6.4530 H         1 <0>         0.0959
     45 H15         7.4039   -4.7541   -4.7443 H         1 <0>         0.1344
     46 H16         7.0768   -6.4637   -4.3724 H         1 <0>         0.1340
     47 H17         7.6150   -6.9901   -6.6351 H         1 <0>         0.4336
     48 H18         9.6560   -5.3166   -5.3494 H         1 <0>         0.1477
     49 H19         9.3289   -7.0262   -4.9775 H         1 <0>         0.1406
     50 H20        11.9698   -5.9292   -5.9003 H         1 <0>         0.0845
     51 H21        11.6911   -7.6723   -5.6720 H         1 <0>         0.0795
     52 H22        14.4446   -7.6593   -9.2299 H         1 <0>         0.1461
     53 H23        16.8327   -7.9607   -8.6129 H         1 <0>         0.1496
     54 H24        17.5007   -7.7692   -6.2514 H         1 <0>         0.1651
     55 H25        13.5933   -6.9911   -5.0906 H         1 <0>         0.1530
     56 H26         9.7612   -8.6595   -6.8029 H         1 <0>         0.3909
     57 H27         7.9177   -5.4074   -6.9794 H         1 <0>         0.4308
@<TRIPOS>BOND
     1    1    6 ar
     2    1    2 ar
     3    1   32 1
     4    2    3 ar
     5    2   33 1
     6    3    4 ar
     7    3   34 1
     8    4    5 ar
     9    5    6 ar
    10    5    7 1
    11    6   35 1
    12    7    8 1
    13    7   36 1
    14    7   37 1
    15    8    9 2
    16    8   10 am
    17   10   11 1
    18   10   38 1
    19   11   16 ar
    20   11   12 ar
    21   12   13 ar
    22   12   39 1
    23   13   14 ar
    24   13   40 1
    25   14   15 ar
    26   14   17 1
    27   15   16 ar
    28   15   41 1
    29   16   42 1
    30   17   18 1
    31   17   43 1
    32   17   44 1
    33   18   19 1
    34   18   45 1
    35   18   46 1
    36   19   20 1
    37   19   47 1
    38   19   57 1
    39   20   21 1
    40   20   48 1
    41   20   49 1
    42   21   22 1
    43   21   23 1
    44   21   31 1
    45   23   24 1
    46   23   50 1
    47   23   51 1
    48   24   25 1
    49   25   30 ar
    50   25   26 ar
    51   26   27 ar
    52   26   52 1
    53   27   28 ar
    54   27   53 1
    55   28   29 ar
    56   28   54 1
    57   29   30 ar
    58   30   55 1
    59   31   56 1
@<TRIPOS>MOLECULE
CHEMBL466713__1
   58    60     0     0     0
SMALL
USER_CHARGES

@<TRIPOS>ATOM
      1 C1          0.3248   -7.2031   -3.0784 C.ar      1 <0>         0.0139
      2 C2         -0.9982   -7.0122   -3.4476 C.ar      1 <0>        -0.1202
      3 C3         -1.6882   -5.9266   -2.9426 C.ar      1 <0>         0.1393
      4 N1         -1.1026   -5.0783   -2.1199 N.ar      1 <0>        -0.4389
      5 C4          0.1533   -5.2285   -1.7475 C.ar      1 <0>         0.1727
      6 C5          0.9062   -6.2908   -2.2115 C.ar      1 <0>        -0.1066
      7 C6          0.7752   -4.2300   -0.8055 C.3       1 <0>        -0.1292
      8 C7          0.6686   -4.7397    0.6087 C.2       1 <0>         0.5195
      9 O1          0.1397   -5.8085    0.8298 O.2       1 <0>        -0.5126
     10 N2          1.1611   -4.0078    1.6276 N.am      1 <0>        -0.6622
     11 C8          0.9769   -4.4335    2.9478 C.ar      1 <0>         0.1459
     12 C9          0.7772   -3.5018    3.9579 C.ar      1 <0>        -0.1322
     13 C10         0.5958   -3.9252    5.2600 C.ar      1 <0>        -0.0867
     14 C11         0.6129   -5.2754    5.5582 C.ar      1 <0>        -0.1109
     15 C12         0.8121   -6.2057    4.5547 C.ar      1 <0>        -0.0892
     16 C13         0.9879   -5.7890    3.2497 C.ar      1 <0>        -0.1140
     17 C14         0.4146   -5.7339    6.9800 C.3       1 <0>        -0.1037
     18 C15        -1.0765   -5.9558    7.2411 C.3       1 <0>        -0.0059
     19 N3         -1.2698   -6.4027    8.6271 N.4       1 <0>        -0.5041
     20 C16        -2.7015   -6.6157    8.8777 C.3       1 <0>        -0.0416
     21 C17        -2.9028   -7.0812   10.3212 C.3       1 <0>         0.0859
     22 H1         -2.5234   -6.3212   11.0043 H         1 <0>         0.1375
     23 C18        -4.3939   -7.3031   10.5823 C.3       1 <0>         0.0262
     24 O2         -4.5935   -7.6248   11.9602 O.3       1 <0>        -0.2965
     25 C19        -5.8717   -7.8535   12.3615 C.ar      1 <0>         0.0642
     26 C20        -6.1494   -8.1668   13.6885 C.ar      1 <0>        -0.0983
     27 C21        -7.4677   -8.3917   14.0499 C.ar      1 <0>        -0.1253
     28 C22        -8.4565   -8.2982   13.0882 C.ar      1 <0>         0.0750
     29 N4         -8.1596   -7.9993   11.8389 N.ar      1 <0>        -0.4496
     30 C23        -6.9187   -7.7725   11.4553 C.ar      1 <0>         0.0174
     31 O3         -2.1953   -8.3052   10.5300 O.3       1 <0>        -0.5425
     32 H2          0.8875   -8.0450   -3.4539 H         1 <0>         0.1822
     33 H3         -1.4830   -7.7030   -4.1214 H         1 <0>         0.1906
     34 H4         -2.7189   -5.7709   -3.2252 H         1 <0>         0.2141
     35 H5          1.9343   -6.4086   -1.9026 H         1 <0>         0.1840
     36 H6          1.8252   -4.0920   -1.0638 H         1 <0>         0.1577
     37 H7          0.2523   -3.2773   -0.8888 H         1 <0>         0.1374
     38 H8          1.6432   -3.1859    1.4459 H         1 <0>         0.4224
     39 H9          0.7640   -2.4471    3.7257 H         1 <0>         0.1358
     40 H10         0.4407   -3.2011    6.0461 H         1 <0>         0.1345
     41 H11         0.8253   -7.2595    4.7909 H         1 <0>         0.1318
     42 H12         1.1383   -6.5163    2.4656 H         1 <0>         0.1434
     43 H13         0.9542   -6.6675    7.1393 H         1 <0>         0.0998
     44 H14         0.7940   -4.9739    7.6631 H         1 <0>         0.1005
     45 H15        -1.6161   -5.0222    7.0818 H         1 <0>         0.1343
     46 H16        -1.4558   -6.7158    6.5580 H         1 <0>         0.1330
     47 H17        -0.7703   -7.2669    8.7745 H         1 <0>         0.4346
     48 H18        -3.2411   -5.6821    8.7184 H         1 <0>         0.1479
     49 H19        -3.0808   -7.3757    8.1946 H         1 <0>         0.1402
     50 H20        -4.9447   -6.3948   10.3377 H         1 <0>         0.0839
     51 H21        -4.7532   -8.1241    9.9618 H         1 <0>         0.0787
     52 H22        -5.3565   -8.2334   14.4187 H         1 <0>         0.1467
     53 H23        -7.7200   -8.6374   15.0709 H         1 <0>         0.1509
     54 H24        -9.4861   -8.4728   13.3639 H         1 <0>         0.1662
     55 H25        -6.7149   -7.5253   10.4239 H         1 <0>         0.1516
     56 H26        -2.4813   -9.0278    9.9547 H         1 <0>         0.3905
     57 H27        -0.9186   -5.6992    9.2594 H         1 <0>         0.4325
     58 H28        -1.6091   -4.3240   -1.7802 H         1 <0>         0.4475
@<TRIPOS>BOND
     1    1    6 ar
     2    1    2 ar
     3    1   32 1
     4    2    3 ar
     5    2   33 1
     6    3    4 ar
     7    3   34 1
     8    4    5 ar
     9    4   58 1
    10    5    6 ar
    11    5    7 1
    12    6   35 1
    13    7    8 1
    14    7   36 1
    15    7   37 1
    16    8    9 2
    17    8   10 am
    18   10   11 1
    19   10   38 1
    20   11   16 ar
    21   11   12 ar
    22   12   13 ar
    23   12   39 1
    24   13   14 ar
    25   13   40 1
    26   14   15 ar
    27   14   17 1
    28   15   16 ar
    29   15   41 1
    30   16   42 1
    31   17   18 1
    32   17   43 1
    33   17   44 1
    34   18   19 1
    35   18   45 1
    36   18   46 1
    37   19   20 1
    38   19   47 1
    39   19   57 1
    40   20   21 1
    41   20   48 1
    42   20   49 1
    43   21   22 1
    44   21   23 1
    45   21   31 1
    46   23   24 1
    47   23   50 1
    48   23   51 1
    49   24   25 1
    50   25   30 ar
    51   25   26 ar
    52   26   27 ar
    53   26   52 1
    54   27   28 ar
    55   27   53 1
    56   28   29 ar
    57   28   54 1
    58   29   30 ar
    59   30   55 1
    60   31   56 1
@<TRIPOS>MOLECULE
CHEMBL445
   42    44     0     0     0
SMALL
USER_CHARGES

@<TRIPOS>ATOM
      1 C1         -0.0178    1.4648    0.0101 C.3       1 <0>        -0.0473
      2 N1          0.0021   -0.0041    0.0020 N.4       1 <0>        -0.5104
      3 C2         -1.3761   -0.5125    0.0124 C.3       1 <0>        -0.0075
      4 C3         -1.3553   -2.0424    0.0040 C.3       1 <0>        -0.1205
      5 C4         -2.7691   -2.5640    0.0147 C.2       1 <0>        -0.1701
      6 C5         -3.1759   -3.4141   -0.9354 C.2       1 <0>         0.0084
      7 C6         -2.2617   -3.8737   -2.0162 C.ar      1 <0>        -0.0603
      8 C7         -1.0502   -4.4584   -1.6510 C.ar      1 <0>        -0.1120
      9 C8         -0.1817   -4.9254   -2.6144 C.ar      1 <0>        -0.1225
     10 C9         -0.5309   -4.8091   -3.9481 C.ar      1 <0>        -0.1072
     11 C10        -1.7216   -4.2226   -4.3099 C.ar      1 <0>        -0.1263
     12 C11        -2.6129   -3.7258   -3.3561 C.ar      1 <0>        -0.0535
     13 C12        -3.8344   -3.0498   -3.9297 C.3       1 <0>        -0.0765
     14 C13        -4.7567   -2.4533   -2.8869 C.3       1 <0>        -0.0806
     15 C14        -5.3648   -3.4987   -1.9877 C.ar      1 <0>        -0.0737
     16 C15        -4.5615   -3.9515   -0.9605 C.ar      1 <0>        -0.0697
     17 C16        -5.0352   -4.8627   -0.0270 C.ar      1 <0>        -0.0955
     18 C17        -6.3272   -5.3414   -0.1696 C.ar      1 <0>        -0.1191
     19 C18        -7.1195   -4.9199   -1.2225 C.ar      1 <0>        -0.1080
     20 C19        -6.6408   -3.9814   -2.1491 C.ar      1 <0>        -0.1083
     21 H1          1.0047    1.8421    0.0024 H         1 <0>         0.1266
     22 H2         -0.5450    1.8259   -0.8730 H         1 <0>         0.1232
     23 H3         -0.5280    1.8163    0.9069 H         1 <0>         0.1239
     24 H4          0.4744   -0.3295   -0.8281 H         1 <0>         0.4301
     25 H5         -1.8863   -0.1610    0.9092 H         1 <0>         0.1332
     26 H6         -1.9033   -0.1515   -0.8706 H         1 <0>         0.1314
     27 H7         -0.8451   -2.3939   -0.8928 H         1 <0>         0.0991
     28 H8         -0.8281   -2.4035    0.8871 H         1 <0>         0.0962
     29 H9         -3.4541   -2.2517    0.7892 H         1 <0>         0.1310
     30 H10        -0.7900   -4.5458   -0.6065 H         1 <0>         0.1235
     31 H11         0.7582   -5.3762   -2.3319 H         1 <0>         0.1290
     32 H12         0.1367   -5.1814   -4.7112 H         1 <0>         0.1265
     33 H13        -1.9733   -4.1443   -5.3573 H         1 <0>         0.1247
     34 H14        -3.5084   -2.2546   -4.6003 H         1 <0>         0.0855
     35 H15        -4.3952   -3.7815   -4.5113 H         1 <0>         0.0834
     36 H16        -4.1905   -1.7497   -2.2766 H         1 <0>         0.0703
     37 H17        -5.5577   -1.9136   -3.3920 H         1 <0>         0.0793
     38 H18        -4.4114   -5.1904    0.7915 H         1 <0>         0.1267
     39 H19        -6.7188   -6.0491    0.5460 H         1 <0>         0.1278
     40 H20        -8.1181   -5.3161   -1.3327 H         1 <0>         0.1275
     41 H21        -7.2557   -3.6486   -2.9723 H         1 <0>         0.1315
     42 H22         0.4901   -0.3383    0.8195 H         1 <0>         0.4302
@<TRIPOS>BOND
     1    1    2 1
     2    1   21 1
     3    1   22 1
     4    1   23 1
     5    2    3 1
     6    2   24 1
     7    2   42 1
     8    3    4 1
     9    3   25 1
    10    3   26 1
    11    4    5 1
    12    4   27 1
    13    4   28 1
    14    5    6 2
    15    5   29 1
    16    6   16 1
    17    6    7 1
    18    7   12 ar
    19    7    8 ar
    20    8    9 ar
    21    8   30 1
    22    9   10 ar
    23    9   31 1
    24   10   11 ar
    25   10   32 1
    26   11   12 ar
    27   11   33 1
    28   12   13 1
    29   13   14 1
    30   13   34 1
    31   13   35 1
    32   14   15 1
    33   14   36 1
    34   14   37 1
    35   15   20 ar
    36   15   16 ar
    37   16   17 ar
    38   17   18 ar
    39   17   38 1
    40   18   19 ar
    41   18   39 1
    42   19   20 ar
    43   19   40 1
    44   20   41 1
@<TRIPOS>MOLECULE
CHEMBL267306
   57    59     0     0     0
SMALL
USER_CHARGES

@<TRIPOS>ATOM
      1 C1         -0.0167    1.3780    0.0096 C.ar      1 <0>        -0.1428
      2 C2          1.1709    2.0861    0.0021 C.ar      1 <0>        -0.0678
      3 C3          2.3773    1.4123   -0.0135 C.ar      1 <0>        -0.1384
      4 C4          2.3967    0.0287   -0.0210 C.ar      1 <0>         0.0585
      5 C5          1.2083   -0.6792   -0.0130 C.ar      1 <0>        -0.6209
      6 C6          0.0021   -0.0041    0.0020 C.ar      1 <0>        -0.0217
      7 S1          1.2320   -2.4410   -0.0232 S.o2      1 <0>         2.6071
      8 O1          2.1436   -2.8408    0.9909 O.2       1 <0>        -1.0089
      9 O2         -0.1241   -2.8653   -0.0390 O.2       1 <0>        -1.0279
     10 N1          1.8925   -2.9134   -1.4664 N.2       1 <0>        -1.0720
     11 C7          2.0388   -4.2719   -1.7561 C.ar      1 <0>         0.2998
     12 C8          1.6254   -5.2281   -0.8372 C.ar      1 <0>        -0.2654
     13 C9          1.7710   -6.5705   -1.1270 C.ar      1 <0>        -0.0472
     14 C10         2.3281   -6.9632   -2.3302 C.ar      1 <0>        -0.2384
     15 C11         2.7407   -6.0140   -3.2473 C.ar      1 <0>        -0.0637
     16 C12         2.5927   -4.6699   -2.9663 C.ar      1 <0>        -0.1806
     17 C13         2.4863   -8.4290   -2.6426 C.3       1 <0>        -0.0709
     18 C14         1.2293   -8.9381   -3.3508 C.3       1 <0>        -0.0110
     19 N2          1.3835  -10.3669   -3.6552 N.4       1 <0>        -0.5039
     20 C15         0.1766  -10.8558   -4.3352 C.3       1 <0>        -0.0418
     21 C16         0.3372  -12.3439   -4.6523 C.3       1 <0>         0.0862
     22 H1          0.4824  -12.8992   -3.7257 H         1 <0>         0.1348
     23 C17        -0.9198  -12.8530   -5.3605 C.3       1 <0>         0.0285
     24 O3         -0.8193  -14.2655   -5.5525 O.3       1 <0>        -0.3012
     25 C18        -1.8618  -14.8799   -6.1728 C.ar      1 <0>         0.1124
     26 C19        -2.9550  -14.1365   -6.5921 C.ar      1 <0>        -0.1913
     27 C20        -4.0141  -14.7606   -7.2222 C.ar      1 <0>        -0.1051
     28 C21        -3.9840  -16.1307   -7.4358 C.ar      1 <0>         0.0763
     29 C22        -2.8904  -16.8740   -7.0173 C.ar      1 <0>        -0.1034
     30 C23        -1.8295  -16.2492   -6.3911 C.ar      1 <0>        -0.1279
     31 O4         -5.0270  -16.7453   -8.0553 O.3       1 <0>        -0.4964
     32 O5          1.4711  -12.5302   -5.5019 O.3       1 <0>        -0.5445
     33 Cl1         3.9119   -0.8184   -0.0411 Cl        1 <0>        -0.0342
     34 H2         -0.9592    1.9049    0.0259 H         1 <0>         0.1343
     35 H3          1.1556    3.1659    0.0080 H         1 <0>         0.1357
     36 H4          3.3048    1.9655   -0.0201 H         1 <0>         0.1382
     37 H5         -0.9258   -0.5566    0.0079 H         1 <0>         0.1459
     38 H6          1.1909   -4.9220    0.1030 H         1 <0>         0.1006
     39 H7          1.4498   -7.3144   -0.4130 H         1 <0>         0.1010
     40 H8          3.1753   -6.3241   -4.1861 H         1 <0>         0.1037
     41 H9          2.9110   -3.9291   -3.6848 H         1 <0>         0.1165
     42 H10         3.3512   -8.5711   -3.2906 H         1 <0>         0.0804
     43 H11         2.6314   -8.9843   -1.7160 H         1 <0>         0.0795
     44 H12         0.3644   -8.7960   -2.7027 H         1 <0>         0.1312
     45 H13         1.0842   -8.3828   -4.2774 H         1 <0>         0.1310
     46 H14         2.1841  -10.4985   -4.2551 H         1 <0>         0.4300
     47 H15        -0.6883  -10.7137   -3.6872 H         1 <0>         0.1454
     48 H16         0.0315  -10.3004   -5.2618 H         1 <0>         0.1382
     49 H17        -1.7956  -12.6306   -4.7509 H         1 <0>         0.0827
     50 H18        -1.0162  -12.3607   -6.3282 H         1 <0>         0.0771
     51 H19        -2.9784  -13.0696   -6.4258 H         1 <0>         0.1302
     52 H20        -4.8656  -14.1818   -7.5481 H         1 <0>         0.1348
     53 H21        -2.8672  -17.9409   -7.1833 H         1 <0>         0.1401
     54 H22        -0.9763  -16.8275   -6.0685 H         1 <0>         0.1382
     55 H23        -4.9406  -16.7924   -9.0172 H         1 <0>         0.3922
     56 H24         1.4106  -12.0633   -6.3466 H         1 <0>         0.3894
     57 H25         1.5179  -10.8810   -2.7975 H         1 <0>         0.4278
@<TRIPOS>BOND
     1    1    6 ar
     2    1    2 ar
     3    1   34 1
     4    2    3 ar
     5    2   35 1
     6    3    4 ar
     7    3   36 1
     8    4    5 ar
     9    4   33 1
    10    5    6 ar
    11    5    7 1
    12    6   37 1
    13    7    8 2
    14    7    9 2
    15    7   10 1
    16   10   11 1
    17   11   16 ar
    18   11   12 ar
    19   12   13 ar
    20   12   38 1
    21   13   14 ar
    22   13   39 1
    23   14   15 ar
    24   14   17 1
    25   15   16 ar
    26   15   40 1
    27   16   41 1
    28   17   18 1
    29   17   42 1
    30   17   43 1
    31   18   19 1
    32   18   44 1
    33   18   45 1
    34   19   20 1
    35   19   46 1
    36   19   57 1
    37   20   21 1
    38   20   47 1
    39   20   48 1
    40   21   22 1
    41   21   23 1
    42   21   32 1
    43   23   24 1
    44   23   49 1
    45   23   50 1
    46   24   25 1
    47   25   30 ar
    48   25   26 ar
    49   26   27 ar
    50   26   51 1
    51   27   28 ar
    52   27   52 1
    53   28   29 ar
    54   28   31 1
    55   29   30 ar
    56   29   53 1
    57   30   54 1
    58   31   55 1
    59   32   56 1
@<TRIPOS>MOLECULE
CHEMBL267306__1
   58    60     0     0     0
SMALL
USER_CHARGES

@<TRIPOS>ATOM
      1 C1          3.4791   -3.8631    3.1185 C.ar      1 <0>        -0.1353
      2 C2          3.4125   -5.2379    2.9875 C.ar      1 <0>        -0.0476
      3 C3          2.6913   -5.7994    1.9510 C.ar      1 <0>        -0.1270
      4 C4          2.0353   -4.9854    1.0444 C.ar      1 <0>         0.0540
      5 C5          2.1019   -3.6100    1.1763 C.ar      1 <0>        -0.6744
      6 C6          2.8241   -3.0495    2.2132 C.ar      1 <0>        -0.0080
      7 S1          1.2675   -2.5727    0.0220 S.o2      1 <0>         2.6859
      8 O1         -0.0596   -3.0694   -0.0849 O.2       1 <0>        -0.9239
      9 O2          1.5512   -1.2329    0.4009 O.2       1 <0>        -0.9418
     10 N1          1.9814   -2.8086   -1.4535 N.pl3     1 <0>        -1.0557
     11 C7          3.3332   -2.5057   -1.6316 C.ar      1 <0>         0.1661
     12 C8          3.8492   -1.3117   -1.1441 C.ar      1 <0>        -0.1489
     13 C9          5.1864   -1.0156   -1.3215 C.ar      1 <0>        -0.0823
     14 C10         6.0113   -1.9059   -1.9841 C.ar      1 <0>        -0.1199
     15 C11         5.5009   -3.0955   -2.4707 C.ar      1 <0>        -0.0882
     16 C12         4.1659   -3.4004   -2.2917 C.ar      1 <0>        -0.1248
     17 C13         7.4698   -1.5789   -2.1767 C.3       1 <0>        -0.0998
     18 C14         8.2733   -2.1132   -0.9894 C.3       1 <0>        -0.0079
     19 N2          9.6950   -1.7944   -1.1771 N.4       1 <0>        -0.5041
     20 C15        10.4665   -2.3074   -0.0371 C.3       1 <0>        -0.0416
     21 C16        11.9472   -1.9754   -0.2327 C.3       1 <0>         0.0855
     22 H1         12.0716   -0.8945   -0.2987 H         1 <0>         0.1366
     23 C17        12.7508   -2.5096    0.9546 C.3       1 <0>         0.0290
     24 O3         14.1140   -2.0994    0.8304 O.3       1 <0>        -0.3010
     25 C18        14.9693   -2.4939    1.8112 C.ar      1 <0>         0.1087
     26 C19        14.5055   -3.2643    2.8672 C.ar      1 <0>        -0.1914
     27 C20        15.3742   -3.6651    3.8636 C.ar      1 <0>        -0.1063
     28 C21        16.7104   -3.2974    3.8078 C.ar      1 <0>         0.0807
     29 C22        17.1744   -2.5277    2.7514 C.ar      1 <0>        -0.1025
     30 C23        16.3065   -2.1306    1.7528 C.ar      1 <0>        -0.1258
     31 O4         17.5654   -3.6911    4.7891 O.3       1 <0>        -0.4957
     32 O5         12.4166   -2.5834   -1.4377 O.3       1 <0>        -0.5431
     33 Cl1         1.1296   -5.6900   -0.2582 Cl        1 <0>        -0.0363
     34 H2          4.0394   -3.4248    3.9311 H         1 <0>         0.1424
     35 H3          3.9245   -5.8731    3.6952 H         1 <0>         0.1443
     36 H4          2.6399   -6.8733    1.8484 H         1 <0>         0.1469
     37 H5          2.8765   -1.9757    2.3160 H         1 <0>         0.1534
     38 H6          1.4607   -3.1571   -2.1940 H         1 <0>         0.4336
     39 H7          3.2053   -0.6156   -0.6271 H         1 <0>         0.1623
     40 H8          5.5882   -0.0875   -0.9427 H         1 <0>         0.1332
     41 H9          6.1479   -3.7886   -2.9878 H         1 <0>         0.1304
     42 H10         3.7689   -4.3316   -2.6681 H         1 <0>         0.1360
     43 H11         7.8278   -2.0427   -3.0959 H         1 <0>         0.0978
     44 H12         7.5941   -0.4981   -2.2428 H         1 <0>         0.0987
     45 H13         7.9153   -1.6494   -0.0702 H         1 <0>         0.1351
     46 H14         8.1490   -3.1940   -0.9233 H         1 <0>         0.1337
     47 H15        10.0264   -2.2237   -2.0280 H         1 <0>         0.4338
     48 H16        10.1085   -1.8436    0.8820 H         1 <0>         0.1473
     49 H17        10.3422   -3.3882    0.0289 H         1 <0>         0.1395
     50 H18        12.3355   -2.1144    1.8817 H         1 <0>         0.0819
     51 H19        12.6987   -3.5983    0.9683 H         1 <0>         0.0766
     52 H20        13.4650   -3.5506    2.9106 H         1 <0>         0.1282
     53 H21        15.0129   -4.2644    4.6862 H         1 <0>         0.1352
     54 H22        18.2148   -2.2411    2.7082 H         1 <0>         0.1419
     55 H23        16.6686   -1.5345    0.9282 H         1 <0>         0.1389
     56 H24        17.9960   -4.5400    4.6184 H         1 <0>         0.3941
     57 H25        12.3363   -3.5470   -1.4492 H         1 <0>         0.3900
     58 H26         9.8101   -0.7939   -1.2383 H         1 <0>         0.4318
@<TRIPOS>BOND
     1    1    6 ar
     2    1    2 ar
     3    1   34 1
     4    2    3 ar
     5    2   35 1
     6    3    4 ar
     7    3   36 1
     8    4    5 ar
     9    4   33 1
    10    5    6 ar
    11    5    7 1
    12    6   37 1
    13    7    8 2
    14    7    9 2
    15    7   10 1
    16   10   11 1
    17   10   38 1
    18   11   16 ar
    19   11   12 ar
    20   12   13 ar
    21   12   39 1
    22   13   14 ar
    23   13   40 1
    24   14   15 ar
    25   14   17 1
    26   15   16 ar
    27   15   41 1
    28   16   42 1
    29   17   18 1
    30   17   43 1
    31   17   44 1
    32   18   19 1
    33   18   45 1
    34   18   46 1
    35   19   20 1
    36   19   47 1
    37   19   58 1
    38   20   21 1
    39   20   48 1
    40   20   49 1
    41   21   22 1
    42   21   23 1
    43   21   32 1
    44   23   24 1
    45   23   50 1
    46   23   51 1
    47   24   25 1
    48   25   30 ar
    49   25   26 ar
    50   26   27 ar
    51   26   52 1
    52   27   28 ar
    53   27   53 1
    54   28   29 ar
    55   28   31 1
    56   29   30 ar
    57   29   54 1
    58   30   55 1
    59   31   56 1
    60   32   57 1
@<TRIPOS>MOLECULE
CHEMBL398557
   67    69     0     0     0
SMALL
USER_CHARGES

@<TRIPOS>ATOM
      1 C1         -0.5712    1.9289   -3.1333 C.3       1 <0>         0.0213
      2 O1         -0.2728    0.5450   -3.3282 O.3       1 <0>        -0.2990
      3 C2         -1.2980   -0.3352   -3.1743 C.ar      1 <0>         0.1275
      4 C3         -2.5642    0.1238   -2.8486 C.ar      1 <0>        -0.1649
      5 C4         -3.6054   -0.7723   -2.6929 C.ar      1 <0>        -0.1131
      6 C5         -3.3865   -2.1270   -2.8610 C.ar      1 <0>        -0.1375
      7 C6         -2.1256   -2.5915   -3.1855 C.ar      1 <0>        -0.1364
      8 C7         -1.0790   -1.6982   -3.3491 C.ar      1 <0>         0.1127
      9 O2          0.1607   -2.1530   -3.6742 O.3       1 <0>        -0.2981
     10 C8          0.3116   -3.5646   -3.8379 C.3       1 <0>         0.0232
     11 C9         -4.5249   -3.0994   -2.6897 C.3       1 <0>         0.0874
     12 H1         -4.1260   -4.0970   -2.5054 H         1 <0>         0.1441
     13 C10        -5.3761   -3.1173   -3.9609 C.3       1 <0>        -0.0951
     14 C11        -4.5688   -3.6885   -5.0980 C.ar      1 <0>        -0.0977
     15 C12        -3.7911   -2.8553   -5.8803 C.ar      1 <0>        -0.0960
     16 C13        -3.0506   -3.3792   -6.9234 C.ar      1 <0>        -0.1174
     17 C14        -3.0873   -4.7363   -7.1839 C.ar      1 <0>        -0.1074
     18 C15        -3.8642   -5.5696   -6.4010 C.ar      1 <0>        -0.1169
     19 C16        -4.6014   -5.0463   -5.3552 C.ar      1 <0>        -0.1107
     20 N1         -5.3549   -2.6858   -1.5504 N.4       1 <0>        -0.5027
     21 C17        -6.3756   -3.7099   -1.2908 C.3       1 <0>        -0.0527
     22 C18        -7.1584   -3.3415   -0.0289 C.3       1 <0>         0.0896
     23 H2         -6.4651   -3.1989    0.8000 H         1 <0>         0.1232
     24 C19        -8.1360   -4.4680    0.3119 C.3       1 <0>        -0.0990
     25 C20        -8.8185   -4.1621    1.6202 C.ar      1 <0>        -0.0567
     26 C21        -8.2580   -4.5941    2.8079 C.ar      1 <0>        -0.2120
     27 C22        -8.8794   -4.3161    4.0116 C.ar      1 <0>        -0.1033
     28 C23       -10.0667   -3.6031    4.0299 C.ar      1 <0>         0.0381
     29 C24       -10.6322   -3.1674    2.8336 C.ar      1 <0>         0.2620
     30 C25       -10.0004   -3.4455    1.6303 C.ar      1 <0>        -0.2280
     31 N2        -11.8321   -2.4468    2.8461 N.2       1 <0>        -1.0825
     32 S1        -12.5449   -2.0008    1.4194 S.o2      1 <0>         2.5260
     33 O3        -11.6030   -1.1373    0.7979 O.2       1 <0>        -1.0344
     34 O4        -12.9216   -3.2250    0.8040 O.2       1 <0>        -1.0299
     35 C26       -14.0213   -1.0669    1.9080 C.3       1 <0>        -0.6366
     36 O5        -10.6792   -3.3293    5.2131 O.3       1 <0>        -0.4844
     37 O6         -7.8853   -2.1322   -0.2553 O.3       1 <0>        -0.5401
     38 H3          0.3318    2.5202   -3.2858 H         1 <0>         0.1084
     39 H4         -1.3340    2.2401   -3.8470 H         1 <0>         0.0601
     40 H5         -0.9387    2.0820   -2.1187 H         1 <0>         0.0607
     41 H6         -2.7377    1.1815   -2.7160 H         1 <0>         0.1466
     42 H7         -4.5918   -0.4133   -2.4391 H         1 <0>         0.1272
     43 H8         -1.9571   -3.6503   -3.3159 H         1 <0>         0.1422
     44 H9          1.3461   -3.7920   -4.0952 H         1 <0>         0.1074
     45 H10         0.0495   -4.0683   -2.9074 H         1 <0>         0.0571
     46 H11        -0.3457   -3.9101   -4.6358 H         1 <0>         0.0582
     47 H12        -6.2602   -3.7336   -3.7975 H         1 <0>         0.0989
     48 H13        -5.6824   -2.1007   -4.2074 H         1 <0>         0.0986
     49 H14        -3.7624   -1.7951   -5.6769 H         1 <0>         0.1210
     50 H15        -2.4436   -2.7282   -7.5351 H         1 <0>         0.1247
     51 H16        -2.5092   -5.1455   -7.9992 H         1 <0>         0.1260
     52 H17        -3.8932   -6.6298   -6.6047 H         1 <0>         0.1271
     53 H18        -5.2055   -5.6978   -4.7412 H         1 <0>         0.1241
     54 H19        -4.7735   -2.5757   -0.7331 H         1 <0>         0.4314
     55 H20        -7.0584   -3.7655   -2.1386 H         1 <0>         0.1360
     56 H21        -5.8925   -4.6768   -1.1494 H         1 <0>         0.1418
     57 H22        -8.8835   -4.5514   -0.4770 H         1 <0>         0.0792
     58 H23        -7.5914   -5.4083    0.3973 H         1 <0>         0.0838
     59 H24        -7.3325   -5.1505    2.7956 H         1 <0>         0.1014
     60 H25        -8.4390   -4.6553    4.9375 H         1 <0>         0.1112
     61 H26       -10.4338   -3.1053    0.7014 H         1 <0>         0.1043
     62 H27       -13.7241   -0.2003    2.4985 H         1 <0>         0.1163
     63 H28       -14.5524   -0.7341    1.0162 H         1 <0>         0.1028
     64 H29       -14.6746   -1.7052    2.5029 H         1 <0>         0.1177
     65 H30       -10.4594   -2.4612    5.5782 H         1 <0>         0.3675
     66 H31        -8.5224   -2.1862   -0.9807 H         1 <0>         0.3866
     67 H32        -5.8054   -1.8085   -1.7634 H         1 <0>         0.4292
@<TRIPOS>BOND
     1    1    2 1
     2    1   38 1
     3    1   39 1
     4    1   40 1
     5    2    3 1
     6    3    8 ar
     7    3    4 ar
     8    4    5 ar
     9    4   41 1
    10    5    6 ar
    11    5   42 1
    12    6    7 ar
    13    6   11 1
    14    7    8 ar
    15    7   43 1
    16    8    9 1
    17    9   10 1
    18   10   44 1
    19   10   45 1
    20   10   46 1
    21   11   12 1
    22   11   13 1
    23   11   20 1
    24   13   14 1
    25   13   47 1
    26   13   48 1
    27   14   19 ar
    28   14   15 ar
    29   15   16 ar
    30   15   49 1
    31   16   17 ar
    32   16   50 1
    33   17   18 ar
    34   17   51 1
    35   18   19 ar
    36   18   52 1
    37   19   53 1
    38   20   21 1
    39   20   54 1
    40   20   67 1
    41   21   22 1
    42   21   55 1
    43   21   56 1
    44   22   23 1
    45   22   24 1
    46   22   37 1
    47   24   25 1
    48   24   57 1
    49   24   58 1
    50   25   30 ar
    51   25   26 ar
    52   26   27 ar
    53   26   59 1
    54   27   28 ar
    55   27   60 1
    56   28   29 ar
    57   28   36 1
    58   29   30 ar
    59   29   31 1
    60   30   61 1
    61   31   32 1
    62   32   33 2
    63   32   34 2
    64   32   35 1
    65   35   62 1
    66   35   63 1
    67   35   64 1
    68   36   65 1
    69   37   66 1
@<TRIPOS>MOLECULE
CHEMBL398557__1
   68    70     0     0     0
SMALL
USER_CHARGES

@<TRIPOS>ATOM
      1 C1         -0.2901   -2.4304   -1.6334 C.3       1 <0>         0.0210
      2 O1         -0.5285   -3.8345   -1.5155 O.3       1 <0>        -0.2971
      3 C2         -1.8057   -4.2244   -1.2582 C.ar      1 <0>         0.1310
      4 C3         -2.8081   -3.2766   -1.1280 C.ar      1 <0>        -0.1660
      5 C4         -4.1060   -3.6747   -0.8669 C.ar      1 <0>        -0.1145
      6 C5         -4.4071   -5.0175   -0.7347 C.ar      1 <0>        -0.1416
      7 C6         -3.4117   -5.9681   -0.8630 C.ar      1 <0>        -0.1369
      8 C7         -2.1098   -5.5763   -1.1309 C.ar      1 <0>         0.1152
      9 O2         -1.1305   -6.5105   -1.2634 O.3       1 <0>        -0.2964
     10 C8         -1.5158   -7.8791   -1.1201 C.3       1 <0>         0.0230
     11 C9         -5.8235   -5.4459   -0.4496 C.3       1 <0>         0.0884
     12 H1         -5.8217   -6.4537   -0.0343 H         1 <0>         0.1448
     13 C10        -6.6321   -5.4308   -1.7484 C.3       1 <0>        -0.0919
     14 C11        -6.0973   -6.4831   -2.6852 C.ar      1 <0>        -0.1014
     15 C12        -5.1520   -6.1462   -3.6359 C.ar      1 <0>        -0.0954
     16 C13        -4.6614   -7.1114   -4.4952 C.ar      1 <0>        -0.1150
     17 C14        -5.1159   -8.4137   -4.4037 C.ar      1 <0>        -0.1045
     18 C15        -6.0605   -8.7509   -3.4525 C.ar      1 <0>        -0.1161
     19 C16        -6.5479   -7.7865   -2.5903 C.ar      1 <0>        -0.1131
     20 N1         -6.4303   -4.5196    0.5157 N.4       1 <0>        -0.5031
     21 C17        -7.7639   -5.0080    0.8912 C.3       1 <0>        -0.0526
     22 C18        -8.3368   -4.1244    2.0012 C.3       1 <0>         0.0886
     23 H2         -7.6361   -4.0890    2.8354 H         1 <0>         0.1253
     24 C19        -9.6693   -4.7051    2.4787 C.3       1 <0>        -0.1080
     25 C20       -10.1732   -3.9065    3.6532 C.ar      1 <0>        -0.0709
     26 C21        -9.8130   -4.2677    4.9382 C.ar      1 <0>        -0.1157
     27 C22       -10.2719   -3.5385    6.0198 C.ar      1 <0>        -0.1156
     28 C23       -11.0947   -2.4428    5.8178 C.ar      1 <0>         0.0926
     29 C24       -11.4582   -2.0780    4.5233 C.ar      1 <0>         0.1366
     30 C25       -10.9897   -2.8112    3.4427 C.ar      1 <0>        -0.1516
     31 N2        -12.2898   -0.9720    4.3132 N.pl3     1 <0>        -1.0488
     32 S1        -13.3362   -0.9548    3.0299 S.o2      1 <0>         2.6098
     33 O3        -14.0806    0.2456    3.1851 O.2       1 <0>        -0.9417
     34 O4        -12.5136   -1.1546    1.8885 O.2       1 <0>        -0.9520
     35 C26       -14.4108   -2.3938    3.2852 C.3       1 <0>        -0.6677
     36 O5        -11.5472   -1.7249    6.8807 O.3       1 <0>        -0.4896
     37 O6         -8.5457   -2.8032    1.4983 O.3       1 <0>        -0.5467
     38 H3          0.7664   -2.2573   -1.8384 H         1 <0>         0.1105
     39 H4         -0.8894   -2.0274   -2.4498 H         1 <0>         0.0608
     40 H5         -0.5653   -1.9357   -0.7020 H         1 <0>         0.0605
     41 H6         -2.5754   -2.2269   -1.2301 H         1 <0>         0.1469
     42 H7         -4.8864   -2.9350   -0.7656 H         1 <0>         0.1244
     43 H8         -3.6495   -7.0165   -0.7589 H         1 <0>         0.1424
     44 H9         -1.9377   -8.0358   -0.1273 H         1 <0>         0.0569
     45 H10        -2.2617   -8.1275   -1.8751 H         1 <0>         0.0586
     46 H11        -0.6420   -8.5179   -1.2485 H         1 <0>         0.1095
     47 H12        -7.6789   -5.6394   -1.5271 H         1 <0>         0.0963
     48 H13        -6.5483   -4.4504   -2.2173 H         1 <0>         0.0981
     49 H14        -4.7969   -5.1287   -3.7074 H         1 <0>         0.1211
     50 H15        -3.9234   -6.8480   -5.2384 H         1 <0>         0.1267
     51 H16        -4.7331   -9.1677   -5.0756 H         1 <0>         0.1279
     52 H17        -6.4158   -9.7683   -3.3812 H         1 <0>         0.1279
     53 H18        -7.2832   -8.0507   -1.8447 H         1 <0>         0.1220
     54 H19        -5.8490   -4.4628    1.3385 H         1 <0>         0.4316
     55 H20        -8.4217   -4.9725    0.0227 H         1 <0>         0.1397
     56 H21        -7.6877   -6.0353    1.2475 H         1 <0>         0.1446
     57 H22       -10.3971   -4.6584    1.6686 H         1 <0>         0.0930
     58 H23        -9.5265   -5.7429    2.7795 H         1 <0>         0.0977
     59 H24        -9.1718   -5.1220    5.0977 H         1 <0>         0.1302
     60 H25        -9.9890   -3.8236    7.0223 H         1 <0>         0.1389
     61 H26       -11.2659   -2.5285    2.4377 H         1 <0>         0.1647
     62 H27       -12.2532   -0.2156    4.9193 H         1 <0>         0.4304
     63 H28       -14.9358   -2.2912    4.2349 H         1 <0>         0.1357
     64 H29       -15.1361   -2.4541    2.4738 H         1 <0>         0.1380
     65 H30       -13.8062   -3.3006    3.3003 H         1 <0>         0.1286
     66 H31       -10.9683   -0.9938    7.1367 H         1 <0>         0.3941
     67 H32        -9.1599   -2.7588    0.7527 H         1 <0>         0.3909
     68 H33        -6.5124   -3.6048    0.0981 H         1 <0>         0.4294
@<TRIPOS>BOND
     1    1    2 1
     2    1   38 1
     3    1   39 1
     4    1   40 1
     5    2    3 1
     6    3    8 ar
     7    3    4 ar
     8    4    5 ar
     9    4   41 1
    10    5    6 ar
    11    5   42 1
    12    6    7 ar
    13    6   11 1
    14    7    8 ar
    15    7   43 1
    16    8    9 1
    17    9   10 1
    18   10   44 1
    19   10   45 1
    20   10   46 1
    21   11   12 1
    22   11   13 1
    23   11   20 1
    24   13   14 1
    25   13   47 1
    26   13   48 1
    27   14   19 ar
    28   14   15 ar
    29   15   16 ar
    30   15   49 1
    31   16   17 ar
    32   16   50 1
    33   17   18 ar
    34   17   51 1
    35   18   19 ar
    36   18   52 1
    37   19   53 1
    38   20   21 1
    39   20   54 1
    40   20   68 1
    41   21   22 1
    42   21   55 1
    43   21   56 1
    44   22   23 1
    45   22   24 1
    46   22   37 1
    47   24   25 1
    48   24   57 1
    49   24   58 1
    50   25   30 ar
    51   25   26 ar
    52   26   27 ar
    53   26   59 1
    54   27   28 ar
    55   27   60 1
    56   28   29 ar
    57   28   36 1
    58   29   30 ar
    59   29   31 1
    60   30   61 1
    61   31   32 1
    62   31   62 1
    63   32   33 2
    64   32   34 2
    65   32   35 1
    66   35   63 1
    67   35   64 1
    68   35   65 1
    69   36   66 1
    70   37   67 1
@<TRIPOS>MOLECULE
CHEMBL510102
   52    54     0     0     0
SMALL
USER_CHARGES

@<TRIPOS>ATOM
      1 C1         -0.0187    1.5258    0.0104 C.3       1 <0>        -0.1828
      2 C2          0.0021   -0.0041    0.0020 C.3       1 <0>         0.0291
      3 H1          0.5293   -0.3651    0.8851 H         1 <0>         0.1401
      4 C3          0.7182   -0.4975   -1.2568 C.3       1 <0>        -0.0928
      5 C4          0.8473   -1.9981   -1.2057 C.ar      1 <0>        -0.1512
      6 C5          1.9599   -2.5743   -0.6195 C.ar      1 <0>        -0.0970
      7 C6          2.0836   -3.9479   -0.5698 C.ar      1 <0>        -0.1119
      8 C7          1.0844   -4.7550   -1.1119 C.ar      1 <0>         0.0089
      9 C8         -0.0346   -4.1686   -1.7014 C.ar      1 <0>        -0.1127
     10 C9         -0.1500   -2.7940   -1.7402 C.ar      1 <0>        -0.1340
     11 C10         1.2116   -6.2313   -1.0621 C.ar      1 <0>        -0.0970
     12 C11         2.3306   -6.8146   -0.4664 C.ar      1 <0>        -0.1146
     13 C12         2.4501   -8.1847   -0.4189 C.ar      1 <0>        -0.0876
     14 C13         1.4492   -8.9926   -0.9681 C.ar      1 <0>        -0.1070
     15 C14         0.3283   -8.4062   -1.5647 C.ar      1 <0>        -0.0881
     16 C15         0.2095   -7.0358   -1.6057 C.ar      1 <0>        -0.1154
     17 C16         1.5756  -10.4602   -0.9186 C.2       1 <0>         0.5134
     18 O1          2.5564  -10.9722   -0.3970 O.co2     1 <0>        -0.6794
     19 O2          0.6999  -11.1660   -1.3991 O.co2     1 <0>        -0.6797
     20 N1         -1.3761   -0.5125    0.0124 N.4       1 <0>        -0.5046
     21 C17        -2.0260   -0.1396    1.2760 C.3       1 <0>        -0.0457
     22 C18        -3.4614   -0.6692    1.2868 C.3       1 <0>         0.1400
     23 H2         -3.4489   -1.7549    1.1913 H         1 <0>         0.1347
     24 C19        -4.1282   -0.2867    2.5830 C.ar      1 <0>        -0.1954
     25 C20        -4.1428   -1.1695    3.6523 C.ar      1 <0>        -0.0542
     26 C21        -4.7678   -0.7749    4.8251 C.ar      1 <0>        -0.1633
     27 C22        -5.3515    0.4764    4.8893 C.ar      1 <0>         0.1192
     28 N2         -5.3187    1.2899    3.8521 N.ar      1 <0>        -0.4763
     29 C23        -4.7278    0.9504    2.7229 C.ar      1 <0>         0.1155
     30 O3         -4.1863   -0.1032    0.1931 O.3       1 <0>        -0.5443
     31 H3          1.0039    1.9031    0.0027 H         1 <0>         0.1075
     32 H4         -0.5459    1.8868   -0.8726 H         1 <0>         0.0832
     33 H5         -0.5289    1.8773    0.9072 H         1 <0>         0.0798
     34 H6          0.1430   -0.2121   -2.1375 H         1 <0>         0.0951
     35 H7          1.7103   -0.0491   -1.3098 H         1 <0>         0.1183
     36 H8          2.7334   -1.9481   -0.2001 H         1 <0>         0.1266
     37 H9          2.9528   -4.3967   -0.1122 H         1 <0>         0.1342
     38 H10        -0.8115   -4.7889   -2.1233 H         1 <0>         0.1340
     39 H11        -1.0186   -2.3386   -2.1924 H         1 <0>         0.1195
     40 H12         3.1035   -6.1904   -0.0428 H         1 <0>         0.1179
     41 H13         3.3165   -8.6358    0.0418 H         1 <0>         0.1331
     42 H14        -0.4455   -9.0286   -1.9892 H         1 <0>         0.1328
     43 H15        -0.6580   -6.5827   -2.0624 H         1 <0>         0.1171
     44 H16        -1.8879   -0.1129   -0.7598 H         1 <0>         0.4275
     45 H17        -1.4732   -0.5714    2.1102 H         1 <0>         0.1439
     46 H18        -2.0386    0.9461    1.3715 H         1 <0>         0.1383
     47 H19        -3.6787   -2.1414    3.5732 H         1 <0>         0.1426
     48 H20        -4.7986   -1.4370    5.6778 H         1 <0>         0.1469
     49 H21        -5.8404    0.7913    5.7993 H         1 <0>         0.1658
     50 H22        -4.7165    1.6455    1.8964 H         1 <0>         0.1527
     51 H23        -4.2382    0.8622    0.2132 H         1 <0>         0.3873
     52 H24        -1.3644   -1.5176   -0.0760 H         1 <0>         0.4299
@<TRIPOS>BOND
     1    1    2 1
     2    1   31 1
     3    1   32 1
     4    1   33 1
     5    2    3 1
     6    2    4 1
     7    2   20 1
     8    4    5 1
     9    4   34 1
    10    4   35 1
    11    5   10 ar
    12    5    6 ar
    13    6    7 ar
    14    6   36 1
    15    7    8 ar
    16    7   37 1
    17    8    9 ar
    18    8   11 1
    19    9   10 ar
    20    9   38 1
    21   10   39 1
    22   11   16 ar
    23   11   12 ar
    24   12   13 ar
    25   12   40 1
    26   13   14 ar
    27   13   41 1
    28   14   15 ar
    29   14   17 1
    30   15   16 ar
    31   15   42 1
    32   16   43 1
    33   17   18 2
    34   17   19 1
    35   20   21 1
    36   20   44 1
    37   20   52 1
    38   21   22 1
    39   21   45 1
    40   21   46 1
    41   22   23 1
    42   22   24 1
    43   22   30 1
    44   24   29 ar
    45   24   25 ar
    46   25   26 ar
    47   25   47 1
    48   26   27 ar
    49   26   48 1
    50   27   28 ar
    51   27   49 1
    52   28   29 ar
    53   29   50 1
    54   30   51 1
@<TRIPOS>MOLECULE
CHEMBL185703
   70    73     0     0     0
SMALL
USER_CHARGES

@<TRIPOS>ATOM
      1 C1         -0.0187    1.5258    0.0104 C.3       1 <0>        -0.1836
      2 C2          0.0021   -0.0041    0.0020 C.3       1 <0>         0.0273
      3 H1         -1.0205   -0.3814    0.0098 H         1 <0>         0.1374
      4 C3          0.7421   -0.5109    1.2415 C.3       1 <0>        -0.0550
      5 C4          0.6567   -2.0144    1.2978 C.2       1 <0>        -0.2366
      6 C5         -0.2496   -2.7379    1.9742 C.2       1 <0>         0.1030
      7 N1         -0.0127   -4.0722    1.7894 N.pl3     1 <0>        -0.5732
      8 H2         -0.5361   -4.7904    2.1782 H         1 <0>         0.4290
      9 C6          1.0807   -4.2438    0.9680 C.ar      1 <0>         0.0788
     10 C7          1.5430   -2.9632    0.6196 C.ar      1 <0>        -0.0790
     11 C8          2.6511   -2.8259   -0.2206 C.ar      1 <0>        -0.1458
     12 C9          3.2801   -3.9382   -0.7043 C.ar      1 <0>        -0.0763
     13 C10         2.8283   -5.2067   -0.3686 C.ar      1 <0>        -0.1996
     14 C11         1.7394   -5.3674    0.4678 C.ar      1 <0>         0.1410
     15 O1          1.3029   -6.6143    0.7889 O.3       1 <0>        -0.2947
     16 C12         2.0273   -7.7167    0.2394 C.3       1 <0>         0.0445
     17 C13         1.4031   -9.0082    0.7012 C.2       1 <0>         0.5146
     18 O2          0.4333   -8.9868    1.4292 O.2       1 <0>        -0.5159
     19 N2          1.9225  -10.1872    0.3053 N.am      1 <0>        -0.6176
     20 C14         1.3156  -11.4427    0.7542 C.3       1 <0>         0.0840
     21 C15         3.0939  -10.2131   -0.5741 C.3       1 <0>         0.0695
     22 N3          0.6897   -0.4778   -1.2066 N.4       1 <0>        -0.5043
     23 C16        -0.0856   -0.0931   -2.3936 C.3       1 <0>        -0.0462
     24 C17         0.6305   -0.5866   -3.6524 C.3       1 <0>         0.1423
     25 H3          0.7239   -1.6719   -3.6155 H         1 <0>         0.1236
     26 C18        -0.1648   -0.1919   -4.8701 C.ar      1 <0>        -0.1010
     27 C19         0.0062    1.0609   -5.4306 C.ar      1 <0>        -0.2175
     28 C20        -0.7218    1.4272   -6.5475 C.ar      1 <0>        -0.0568
     29 C21        -1.6223    0.5422   -7.1077 C.ar      1 <0>        -0.2496
     30 C22        -1.7961   -0.7168   -6.5476 C.ar      1 <0>         0.2863
     31 C23        -1.0592   -1.0835   -5.4283 C.ar      1 <0>        -0.1665
     32 N4         -2.7059   -1.6142   -7.1114 N.2       1 <0>        -1.0869
     33 S1         -3.5788   -1.1774   -8.4492 S.o2      1 <0>         2.6401
     34 O3         -4.4457   -0.1271   -8.0434 O.2       1 <0>        -1.0184
     35 O4         -2.6468   -1.0285   -9.5115 O.2       1 <0>        -1.0164
     36 C24        -4.6072   -2.5451   -8.8696 C.2       1 <0>        -0.6793
     37 C25        -5.8679   -2.8237   -8.4570 C.2       1 <0>        -0.0394
     38 C26        -6.4884   -3.9675   -8.9231 C.2       1 <0>        -0.1836
     39 C27        -5.8178   -4.7768   -9.7791 C.2       1 <0>        -0.1613
     40 S2         -4.2620   -3.9193   -9.9557 S.3       1 <0>         0.1441
     41 O5          1.9312    0.0013   -3.7219 O.3       1 <0>        -0.5533
     42 H4          1.0039    1.9031    0.0027 H         1 <0>         0.0811
     43 H5         -0.5459    1.8868   -0.8726 H         1 <0>         0.0842
     44 H6         -0.5289    1.8773    0.9072 H         1 <0>         0.1036
     45 H7          1.7879   -0.2080    1.1895 H         1 <0>         0.0932
     46 H8          0.2852   -0.0874    2.1360 H         1 <0>         0.1152
     47 H9         -1.0473   -2.3272    2.5754 H         1 <0>         0.1792
     48 H10         3.0094   -1.8426   -0.4874 H         1 <0>         0.1198
     49 H11         4.1360   -3.8293   -1.3538 H         1 <0>         0.1344
     50 H12         3.3361   -6.0763   -0.7590 H         1 <0>         0.1361
     51 H13         1.9952   -7.6664   -0.8489 H         1 <0>         0.0990
     52 H14         3.0636   -7.6738    0.5747 H         1 <0>         0.0976
     53 H15         0.5482  -11.7498    0.0436 H         1 <0>         0.0606
     54 H16         2.0824  -12.2148    0.8171 H         1 <0>         0.0761
     55 H17         0.8646  -11.2977    1.7359 H         1 <0>         0.0794
     56 H18         4.0013  -10.2239    0.0298 H         1 <0>         0.0644
     57 H19         3.0612  -11.1073   -1.1966 H         1 <0>         0.0821
     58 H20         3.0909   -9.3276   -1.2096 H         1 <0>         0.0727
     59 H21         1.6080   -0.0627   -1.2556 H         1 <0>         0.4229
     60 H22        -1.0777   -0.5415   -2.3406 H         1 <0>         0.1429
     61 H23        -0.1790    0.9922   -2.4305 H         1 <0>         0.1380
     62 H24         0.7097    1.7547   -4.9946 H         1 <0>         0.1011
     63 H25        -0.5864    2.4065   -6.9823 H         1 <0>         0.1095
     64 H26        -2.1909    0.8290   -7.9799 H         1 <0>         0.1022
     65 H27        -1.1890   -2.0633   -4.9928 H         1 <0>         0.1147
     66 H28        -6.3798   -2.1621   -7.7739 H         1 <0>         0.1425
     67 H29        -7.4924   -4.2129   -8.6097 H         1 <0>         0.1384
     68 H30        -6.1421   -5.6989  -10.2383 H         1 <0>         0.1906
     69 H31         1.9246    0.9676   -3.7575 H         1 <0>         0.3838
     70 H32         0.7761   -1.4825   -1.1724 H         1 <0>         0.4270
@<TRIPOS>BOND
     1    1    2 1
     2    1   42 1
     3    1   43 1
     4    1   44 1
     5    2    3 1
     6    2    4 1
     7    2   22 1
     8    4    5 1
     9    4   45 1
    10    4   46 1
    11    5   10 1
    12    5    6 2
    13    6    7 1
    14    6   47 1
    15    7    8 1
    16    7    9 1
    17    9   14 ar
    18    9   10 ar
    19   10   11 ar
    20   11   12 ar
    21   11   48 1
    22   12   13 ar
    23   12   49 1
    24   13   14 ar
    25   13   50 1
    26   14   15 1
    27   15   16 1
    28   16   17 1
    29   16   51 1
    30   16   52 1
    31   17   18 2
    32   17   19 am
    33   19   20 1
    34   19   21 1
    35   20   53 1
    36   20   54 1
    37   20   55 1
    38   21   56 1
    39   21   57 1
    40   21   58 1
    41   22   23 1
    42   22   59 1
    43   22   70 1
    44   23   24 1
    45   23   60 1
    46   23   61 1
    47   24   25 1
    48   24   26 1
    49   24   41 1
    50   26   31 ar
    51   26   27 ar
    52   27   28 ar
    53   27   62 1
    54   28   29 ar
    55   28   63 1
    56   29   30 ar
    57   29   64 1
    58   30   31 ar
    59   30   32 1
    60   31   65 1
    61   32   33 1
    62   33   34 2
    63   33   35 2
    64   33   36 1
    65   36   40 1
    66   36   37 2
    67   37   38 1
    68   37   66 1
    69   38   39 2
    70   38   67 1
    71   39   40 1
    72   39   68 1
    73   41   69 1
@<TRIPOS>MOLECULE
CHEMBL101521
   72    74     0     0     0
SMALL
USER_CHARGES

@<TRIPOS>ATOM
      1 C1          1.0391    2.3532   -1.5912 C.3       1 <0>        -0.6348
      2 S1          1.4798    0.7904   -2.3999 S.o2      1 <0>         2.5257
      3 O1          0.7284    0.6290   -3.5952 O.2       1 <0>        -1.0339
      4 O2          2.8907    0.6217   -2.4029 O.2       1 <0>        -1.0269
      5 N1          0.9153   -0.3888   -1.3835 N.2       1 <0>        -1.0771
      6 C2          0.9991   -1.7347   -1.7582 C.ar      1 <0>         0.2699
      7 C3          1.6551   -2.0916   -2.9273 C.ar      1 <0>        -0.2331
      8 C4          1.7369   -3.4215   -3.2949 C.ar      1 <0>        -0.0952
      9 C5          1.1662   -4.3983   -2.5002 C.ar      1 <0>        -0.2029
     10 C6          0.5107   -4.0500   -1.3335 C.ar      1 <0>        -0.1039
     11 C7          0.4289   -2.7201   -0.9553 C.ar      1 <0>         0.0491
     12 O3         -0.2111   -2.3765    0.1947 O.3       1 <0>        -0.4814
     13 C8          2.4495   -3.8077   -4.5655 C.3       1 <0>         0.1368
     14 H1          3.1834   -3.0422   -4.8174 H         1 <0>         0.1252
     15 C9          1.4331   -3.9336   -5.7021 C.3       1 <0>        -0.0416
     16 N2          2.1277   -4.3100   -6.9406 N.4       1 <0>        -0.5058
     17 C10         1.1519   -4.4309   -8.0320 C.3       1 <0>        -0.0069
     18 C11         1.8753   -4.8229   -9.3219 C.3       1 <0>        -0.1095
     19 C12         2.8171   -3.6922   -9.7421 C.3       1 <0>        -0.1497
     20 C13         3.5651   -4.1024  -11.0145 C.3       1 <0>         0.1235
     21 N3          2.5827   -4.4816  -12.0391 N.pl3     1 <0>        -0.6318
     22 C14         1.5728   -5.4961  -11.7083 C.3       1 <0>         0.1215
     23 C15         0.8471   -5.0703  -10.4281 C.3       1 <0>        -0.1282
     24 C16         2.6081   -3.8913  -13.2978 C.ar      1 <0>         0.2101
     25 C17         3.4947   -2.8502  -13.5590 C.ar      1 <0>        -0.2050
     26 C18         3.5221   -2.2639  -14.8037 C.ar      1 <0>        -0.0211
     27 C19         2.6586   -2.7148  -15.8063 C.ar      1 <0>        -0.1413
     28 C20         1.7695   -3.7604  -15.5408 C.ar      1 <0>        -0.0374
     29 C21         1.7508   -4.3464  -14.2958 C.ar      1 <0>        -0.2001
     30 C22         2.6851   -2.0882  -17.1415 C.2       1 <0>         0.5575
     31 O4          3.4587   -1.1785  -17.3710 O.2       1 <0>        -0.5658
     32 N4          1.8519   -2.5240  -18.1071 N.am      1 <0>        -0.6549
     33 C23         1.8783   -1.9017  -19.4331 C.3       1 <0>         0.1038
     34 H2          2.9008   -1.6162  -19.6803 H         1 <0>         0.0807
     35 C24         1.3609   -2.8967  -20.4738 C.3       1 <0>        -0.1755
     36 C25         2.3064   -4.0668  -20.5637 C.2       1 <0>         0.4915
     37 O5          3.3018   -4.1016  -19.8605 O.co2     1 <0>        -0.6900
     38 O6          2.0759   -4.9786  -21.3396 O.co2     1 <0>        -0.7226
     39 C26         1.0013   -0.6761  -19.4304 C.2       1 <0>         0.4919
     40 O7          0.4092   -0.3525  -18.4150 O.co2     1 <0>        -0.7011
     41 O8          0.8840   -0.0083  -20.4437 O.co2     1 <0>        -0.7082
     42 O9          3.1122   -5.0598   -4.3782 O.3       1 <0>        -0.5529
     43 H3         -0.0429    2.4080   -1.4716 H         1 <0>         0.1173
     44 H4          1.5158    2.4027   -0.6122 H         1 <0>         0.1179
     45 H5          1.3797    3.1880   -2.2037 H         1 <0>         0.1054
     46 H6          2.1015   -1.3306   -3.5501 H         1 <0>         0.1088
     47 H7          1.2322   -5.4362   -2.7915 H         1 <0>         0.1041
     48 H8          0.0659   -4.8155   -0.7149 H         1 <0>         0.1157
     49 H9         -1.1678   -2.2752    0.0972 H         1 <0>         0.3681
     50 H10         0.6991   -4.6990   -5.4502 H         1 <0>         0.1362
     51 H11         0.9276   -2.9785   -5.8450 H         1 <0>         0.1460
     52 H12         2.8071   -3.6014   -7.1739 H         1 <0>         0.4264
     53 H13         0.4179   -5.1963   -7.7800 H         1 <0>         0.1314
     54 H14         0.6464   -3.4758   -8.1748 H         1 <0>         0.1332
     55 H15         2.4524   -5.7320   -9.1526 H         1 <0>         0.0937
     56 H16         2.2379   -2.7893   -9.9356 H         1 <0>         0.0860
     57 H17         3.5345   -3.5007   -8.9441 H         1 <0>         0.0660
     58 H18         4.1625   -3.2643  -11.3735 H         1 <0>         0.0948
     59 H19         4.2146   -4.9509  -10.7991 H         1 <0>         0.0612
     60 H20         0.8556   -5.5777  -12.5250 H         1 <0>         0.0953
     61 H21         2.0597   -6.4583  -11.5495 H         1 <0>         0.0610
     62 H22         0.1623   -5.8598  -10.1184 H         1 <0>         0.0812
     63 H23         0.2865   -4.1545  -10.6152 H         1 <0>         0.0807
     64 H24         4.1613   -2.5021  -12.7839 H         1 <0>         0.1204
     65 H25         4.2099   -1.4561  -15.0056 H         1 <0>         0.1343
     66 H26         1.1008   -4.1107  -16.3132 H         1 <0>         0.1282
     67 H27         1.0674   -5.1574  -14.0916 H         1 <0>         0.1217
     68 H28         1.2348   -3.2496  -17.9241 H         1 <0>         0.3813
     69 H29         0.3728   -3.2499  -20.1791 H         1 <0>         0.0502
     70 H30         1.2966   -2.4062  -21.4451 H         1 <0>         0.0752
     71 H31         2.5188   -5.7888   -4.1510 H         1 <0>         0.3828
     72 H32         2.5956   -5.1941   -6.8084 H         1 <0>         0.4270
@<TRIPOS>BOND
     1    1    2 1
     2    1   43 1
     3    1   44 1
     4    1   45 1
     5    2    3 2
     6    2    4 2
     7    2    5 1
     8    5    6 1
     9    6   11 ar
    10    6    7 ar
    11    7    8 ar
    12    7   46 1
    13    8    9 ar
    14    8   13 1
    15    9   10 ar
    16    9   47 1
    17   10   11 ar
    18   10   48 1
    19   11   12 1
    20   12   49 1
    21   13   14 1
    22   13   15 1
    23   13   42 1
    24   15   16 1
    25   15   50 1
    26   15   51 1
    27   16   17 1
    28   16   52 1
    29   16   72 1
    30   17   18 1
    31   17   53 1
    32   17   54 1
    33   18   23 1
    34   18   19 1
    35   18   55 1
    36   19   20 1
    37   19   56 1
    38   19   57 1
    39   20   21 1
    40   20   58 1
    41   20   59 1
    42   21   22 1
    43   21   24 1
    44   22   23 1
    45   22   60 1
    46   22   61 1
    47   23   62 1
    48   23   63 1
    49   24   29 ar
    50   24   25 ar
    51   25   26 ar
    52   25   64 1
    53   26   27 ar
    54   26   65 1
    55   27   28 ar
    56   27   30 1
    57   28   29 ar
    58   28   66 1
    59   29   67 1
    60   30   31 2
    61   30   32 am
    62   32   33 1
    63   32   68 1
    64   33   34 1
    65   33   35 1
    66   33   39 1
    67   35   36 1
    68   35   69 1
    69   35   70 1
    70   36   37 2
    71   36   38 1
    72   39   40 2
    73   39   41 1
    74   42   71 1
@<TRIPOS>MOLECULE
CHEMBL101521__1
   73    75     0     0     0
SMALL
USER_CHARGES

@<TRIPOS>ATOM
      1 C1          0.0365    1.8244    0.1708 C.3       1 <0>        -0.6691
      2 S1          0.0156    0.0171    0.0165 S.o2      1 <0>         2.6052
      3 O1          0.8578   -0.5678    1.0002 O.2       1 <0>        -0.9477
      4 O2         -1.3167   -0.4434   -0.1631 O.2       1 <0>        -0.9372
      5 N1          0.7688   -0.2957   -1.4248 N.pl3     1 <0>        -1.0513
      6 C2          2.0929    0.1111   -1.6252 C.ar      1 <0>         0.1378
      7 C3          2.9967    0.0806   -0.5731 C.ar      1 <0>        -0.1473
      8 C4          4.3039    0.4823   -0.7737 C.ar      1 <0>        -0.1166
      9 C5          4.7140    0.9150   -2.0211 C.ar      1 <0>        -0.1040
     10 C6          3.8187    0.9481   -3.0744 C.ar      1 <0>        -0.1134
     11 C7          2.5084    0.5422   -2.8831 C.ar      1 <0>         0.1066
     12 O3          1.6281    0.5693   -3.9195 O.3       1 <0>        -0.4883
     13 C8          5.2844    0.4491    0.3703 C.3       1 <0>         0.1325
     14 H1          4.9621   -0.2901    1.1037 H         1 <0>         0.1383
     15 C9          5.3458    1.8284    1.0295 C.3       1 <0>        -0.0444
     16 N2          6.3016    1.7961    2.1446 N.4       1 <0>        -0.5065
     17 C10         6.3605    3.1204    2.7776 C.3       1 <0>        -0.0066
     18 C11         7.3560    3.0867    3.9390 C.3       1 <0>        -0.1107
     19 C12         6.8404    2.1397    5.0251 C.3       1 <0>        -0.1477
     20 C13         7.8559    2.0818    6.1706 C.3       1 <0>         0.1235
     21 N3          8.1199    3.4494    6.6381 N.pl3     1 <0>        -0.6327
     22 C14         8.5339    4.4633    5.6586 C.3       1 <0>         0.1201
     23 C15         7.5108    4.4945    4.5189 C.3       1 <0>        -0.1281
     24 C16         7.9801    3.7781    7.9819 C.ar      1 <0>         0.2050
     25 C17         7.7114    2.7817    8.9164 C.ar      1 <0>        -0.2032
     26 C18         7.5725    3.1038   10.2471 C.ar      1 <0>        -0.0221
     27 C19         7.7015    4.4331   10.6601 C.ar      1 <0>        -0.1361
     28 C20         7.9713    5.4313    9.7193 C.ar      1 <0>        -0.0380
     29 C21         8.1147    5.1020    8.3909 C.ar      1 <0>        -0.1985
     30 C22         7.5527    4.7819   12.0857 C.2       1 <0>         0.5553
     31 O4          7.3176    3.9127   12.9029 O.2       1 <0>        -0.5643
     32 N4          7.6773    6.0639   12.4824 N.am      1 <0>        -0.6531
     33 C23         7.5295    6.4103   13.8982 C.3       1 <0>         0.1035
     34 H2          7.9323    5.6054   14.5131 H         1 <0>         0.0815
     35 C24         8.2919    7.7046   14.1889 C.3       1 <0>        -0.1759
     36 C25         9.7674    7.4747   13.9866 C.2       1 <0>         0.4914
     37 O5         10.1718    6.3773   13.6419 O.co2     1 <0>        -0.6912
     38 O6         10.5568    8.3860   14.1676 O.co2     1 <0>        -0.7208
     39 C26         6.0697    6.6045   14.2181 C.2       1 <0>         0.4922
     40 O7          5.2305    6.4663   13.3445 O.co2     1 <0>        -0.7031
     41 O8          5.7278    6.8997   15.3506 O.co2     1 <0>        -0.7057
     42 O9          6.5792    0.0985   -0.1222 O.3       1 <0>        -0.5438
     43 H3          1.0678    2.1773    0.1699 H         1 <0>         0.1259
     44 H4         -0.4997    2.2670   -0.6687 H         1 <0>         0.1347
     45 H5         -0.4461    2.1150    1.1039 H         1 <0>         0.1408
     46 H6          0.2922   -0.7608   -2.1301 H         1 <0>         0.4358
     47 H7          2.6788   -0.2566    0.4024 H         1 <0>         0.1716
     48 H8          5.7363    1.2284   -2.1732 H         1 <0>         0.1321
     49 H9          4.1424    1.2867   -4.0476 H         1 <0>         0.1437
     50 H10         1.1511    1.4058   -4.0087 H         1 <0>         0.3974
     51 H11         5.6680    2.5677    0.2962 H         1 <0>         0.1380
     52 H12         4.3582    2.0959    1.4052 H         1 <0>         0.1449
     53 H13         6.0033    1.1118    2.8235 H         1 <0>         0.4295
     54 H14         6.6828    3.8596    2.0442 H         1 <0>         0.1328
     55 H15         5.3729    3.3879    3.1533 H         1 <0>         0.1337
     56 H16         8.3224    2.7340    3.5788 H         1 <0>         0.0954
     57 H17         5.8858    2.5052    5.4033 H         1 <0>         0.0855
     58 H18         6.7082    1.1424    4.6054 H         1 <0>         0.0637
     59 H19         7.4498    1.4877    6.9893 H         1 <0>         0.0954
     60 H20         8.7829    1.6320    5.8148 H         1 <0>         0.0608
     61 H21         8.5751    5.4406    6.1395 H         1 <0>         0.0976
     62 H22         9.5161    4.2077    5.2611 H         1 <0>         0.0617
     63 H23         7.8557    5.1733    3.7389 H         1 <0>         0.0812
     64 H24         6.5498    4.8379    4.9019 H         1 <0>         0.0807
     65 H25         7.6115    1.7550    8.5966 H         1 <0>         0.1196
     66 H26         7.3637    2.3305   10.9715 H         1 <0>         0.1353
     67 H27         8.0711    6.4592   10.0353 H         1 <0>         0.1294
     68 H28         8.3279    5.8721    7.6642 H         1 <0>         0.1215
     69 H29         7.8648    6.7573   11.8305 H         1 <0>         0.3811
     70 H30         7.9500    8.4875   13.5119 H         1 <0>         0.0502
     71 H31         8.1096    8.0100   15.2192 H         1 <0>         0.0762
     72 H32         6.9296    0.7140   -0.7805 H         1 <0>         0.3871
     73 H33         7.2158    1.5485    1.7969 H         1 <0>         0.4312
@<TRIPOS>BOND
     1    1    2 1
     2    1   43 1
     3    1   44 1
     4    1   45 1
     5    2    3 2
     6    2    4 2
     7    2    5 1
     8    5    6 1
     9    5   46 1
    10    6   11 ar
    11    6    7 ar
    12    7    8 ar
    13    7   47 1
    14    8    9 ar
    15    8   13 1
    16    9   10 ar
    17    9   48 1
    18   10   11 ar
    19   10   49 1
    20   11   12 1
    21   12   50 1
    22   13   14 1
    23   13   15 1
    24   13   42 1
    25   15   16 1
    26   15   51 1
    27   15   52 1
    28   16   17 1
    29   16   53 1
    30   16   73 1
    31   17   18 1
    32   17   54 1
    33   17   55 1
    34   18   23 1
    35   18   19 1
    36   18   56 1
    37   19   20 1
    38   19   57 1
    39   19   58 1
    40   20   21 1
    41   20   59 1
    42   20   60 1
    43   21   22 1
    44   21   24 1
    45   22   23 1
    46   22   61 1
    47   22   62 1
    48   23   63 1
    49   23   64 1
    50   24   29 ar
    51   24   25 ar
    52   25   26 ar
    53   25   65 1
    54   26   27 ar
    55   26   66 1
    56   27   28 ar
    57   27   30 1
    58   28   29 ar
    59   28   67 1
    60   29   68 1
    61   30   31 2
    62   30   32 am
    63   32   33 1
    64   32   69 1
    65   33   34 1
    66   33   35 1
    67   33   39 1
    68   35   36 1
    69   35   70 1
    70   35   71 1
    71   36   37 2
    72   36   38 1
    73   39   40 2
    74   39   41 1
    75   42   72 1
@<TRIPOS>MOLECULE
CHEMBL498703
   54    57     0     0     0
SMALL
USER_CHARGES

@<TRIPOS>ATOM
      1 C1          1.2039    0.5742    1.1713 C.ar      1 <0>        -0.0985
      2 C2          2.2807    1.4184    0.9720 C.ar      1 <0>        -0.0985
      3 C3          3.5411    0.8930    0.7579 C.ar      1 <0>        -0.1288
      4 C4          3.7257   -0.4768    0.7424 C.ar      1 <0>        -0.0992
      5 C5          2.6488   -1.3219    0.9417 C.ar      1 <0>        -0.0300
      6 C6          1.3873   -0.7954    1.1564 C.ar      1 <0>        -0.0927
      7 Cl1         2.8799   -3.0424    0.9218 Cl        1 <0>        -0.0482
      8 C7          4.7141    1.8138    0.5408 C.3       1 <0>         0.1376
      9 H1          4.5097    2.7784    1.0054 H         1 <0>         0.1348
     10 C8          4.9391    2.0081   -0.9601 C.3       1 <0>        -0.0482
     11 N1          6.0826    2.9056   -1.1717 N.4       1 <0>        -0.5018
     12 C9          6.2986    3.0921   -2.6127 C.3       1 <0>         0.0259
     13 H2          5.3789    3.4456   -3.0789 H         1 <0>         0.1451
     14 C10         7.4183    4.1147   -2.8388 C.3       1 <0>        -0.1377
     15 C11         7.4571    4.4660   -4.3247 C.3       1 <0>        -0.0729
     16 C12         7.5096    3.2155   -5.1633 C.ar      1 <0>        -0.0914
     17 C13         7.9262    3.3403   -6.4831 C.ar      1 <0>        -0.0979
     18 C14         7.9910    2.2367   -7.3063 C.ar      1 <0>        -0.1034
     19 C15         7.6366    0.9889   -6.8129 C.ar      1 <0>         0.1258
     20 C16         7.2243    0.8645   -5.4972 C.ar      1 <0>        -0.1130
     21 C17         7.1631    1.9775   -4.6697 C.ar      1 <0>        -0.0807
     22 C18         6.7196    1.7673   -3.2453 C.3       1 <0>        -0.0905
     23 O1          7.6935   -0.1049   -7.6172 O.3       1 <0>        -0.2575
     24 C19         8.9097   -0.6432   -7.8735 C.ar      1 <0>         0.2857
     25 C20         9.0167   -1.6962   -8.7779 C.ar      1 <0>        -0.1897
     26 C21        10.2470   -2.2385   -9.0358 C.ar      1 <0>        -0.0135
     27 C22        11.3649   -1.7072   -8.3722 C.ar      1 <0>        -0.2000
     28 C23        11.1819   -0.6499   -7.4774 C.ar      1 <0>         0.1588
     29 N2          9.9804   -0.1562   -7.2639 N.ar      1 <0>        -0.5406
     30 C24        12.7093   -2.2565   -8.6154 C.2       1 <0>         0.5250
     31 O2         12.8588   -3.1827   -9.4006 O.co2     1 <0>        -0.6792
     32 O3         13.6767   -1.7867   -8.0324 O.co2     1 <0>        -0.6815
     33 O4          5.8843    1.2410    1.1277 O.3       1 <0>        -0.5467
     34 H3          0.2201    0.9853    1.3430 H         1 <0>         0.1418
     35 H4          2.1368    2.4887    0.9833 H         1 <0>         0.1347
     36 H5          4.7105   -0.8872    0.5744 H         1 <0>         0.1342
     37 H6          0.5462   -1.4547    1.3120 H         1 <0>         0.1423
     38 H7          5.1435    1.0434   -1.4246 H         1 <0>         0.1388
     39 H8          4.0465    2.4450   -1.4077 H         1 <0>         0.1463
     40 H9          5.8933    3.7986   -0.7416 H         1 <0>         0.4293
     41 H10         7.2187    5.0129   -2.2544 H         1 <0>         0.0927
     42 H11         8.3739    3.6853   -2.5380 H         1 <0>         0.0954
     43 H12         6.5639    5.0348   -4.5830 H         1 <0>         0.0872
     44 H13         8.3399    5.0723   -4.5277 H         1 <0>         0.0978
     45 H14         8.2015    4.3113   -6.8676 H         1 <0>         0.1320
     46 H15         8.3158    2.3426   -8.3308 H         1 <0>         0.1326
     47 H16         6.9475   -0.1057   -5.1118 H         1 <0>         0.1295
     48 H17         7.5430    1.3411   -2.6722 H         1 <0>         0.0978
     49 H18         5.8761    1.0772   -3.2290 H         1 <0>         0.0960
     50 H19         8.1369   -2.0820   -9.2714 H         1 <0>         0.1364
     51 H20        10.3553   -3.0560   -9.7331 H         1 <0>         0.1492
     52 H21        12.0329   -0.2318   -6.9603 H         1 <0>         0.1679
     53 H22         6.1264    0.3793    0.7616 H         1 <0>         0.3903
     54 H23         6.9089    2.5011   -0.7573 H         1 <0>         0.4311
@<TRIPOS>BOND
     1    1    6 ar
     2    1    2 ar
     3    1   34 1
     4    2    3 ar
     5    2   35 1
     6    3    4 ar
     7    3    8 1
     8    4    5 ar
     9    4   36 1
    10    5    6 ar
    11    5    7 1
    12    6   37 1
    13    8    9 1
    14    8   10 1
    15    8   33 1
    16   10   11 1
    17   10   38 1
    18   10   39 1
    19   11   12 1
    20   11   40 1
    21   11   54 1
    22   12   13 1
    23   12   22 1
    24   12   14 1
    25   14   15 1
    26   14   41 1
    27   14   42 1
    28   15   16 1
    29   15   43 1
    30   15   44 1
    31   16   21 ar
    32   16   17 ar
    33   17   18 ar
    34   17   45 1
    35   18   19 ar
    36   18   46 1
    37   19   20 ar
    38   19   23 1
    39   20   21 ar
    40   20   47 1
    41   21   22 1
    42   22   48 1
    43   22   49 1
    44   23   24 1
    45   24   29 ar
    46   24   25 ar
    47   25   26 ar
    48   25   50 1
    49   26   27 ar
    50   26   51 1
    51   27   28 ar
    52   27   30 1
    53   28   29 ar
    54   28   52 1
    55   30   31 2
    56   30   32 1
    57   33   53 1
@<TRIPOS>MOLECULE
CHEMBL343755
   50    54     0     0     0
SMALL
USER_CHARGES

@<TRIPOS>ATOM
      1 C1         -0.1440    1.9393   -0.2906 C.3       1 <0>        -0.1595
      2 C2          0.6384    0.6246   -0.3136 C.3       1 <0>         0.1299
      3 H1          0.1858   -0.1236   -0.9644 H         1 <0>         0.0924
      4 C3          2.1429    0.8128   -0.5524 C.3       1 <0>        -0.1491
      5 C4          2.2667   -0.3115    0.4853 C.3       1 <0>         0.1230
      6 H2          3.0939   -0.1709    1.1810 H         1 <0>         0.0901
      7 N1          0.9659    0.1144    1.0262 N.am      1 <0>        -0.6405
      8 C5          0.3474    0.0617    2.2225 C.2       1 <0>         0.5549
      9 O1         -0.8012    0.4364    2.3283 O.2       1 <0>        -0.5322
     10 C6          1.0830   -0.4630    3.4286 C.3       1 <0>        -0.0630
     11 H3          2.1545   -0.3101    3.3002 H         1 <0>         0.1091
     12 C7          0.6036    0.2718    4.6857 C.3       1 <0>         0.0775
     13 N2          1.2614   -0.3259    5.8515 N.3       1 <0>        -0.5483
     14 C8          0.8742   -1.7130    6.0741 C.3       1 <0>         0.1384
     15 C9          1.8529   -2.3702    7.0571 C.3       1 <0>        -0.0231
     16 C10         1.5196   -3.8331    7.1909 C.2       1 <0>        -0.1683
     17 C11         1.7061   -4.7597    8.1250 C.2       1 <0>         0.0573
     18 N3          1.1922   -5.9768    7.7048 N.pl3     1 <0>        -0.5951
     19 H4          1.2160   -6.7962    8.2233 H         1 <0>         0.4163
     20 C12         0.6488   -5.8595    6.4612 C.ar      1 <0>         0.1109
     21 C13         0.8308   -4.5203    6.1047 C.ar      1 <0>        -0.1310
     22 C14         0.4082   -3.9286    4.8960 C.ar      1 <0>        -0.0031
     23 C15        -0.2167   -4.7729    4.0068 C.ar      1 <0>        -0.1286
     24 C16        -0.4000   -6.1134    4.3393 C.ar      1 <0>        -0.0961
     25 C17         0.0098   -6.6860    5.5379 C.ar      1 <0>        -0.1217
     26 C18         0.7020   -2.4859    4.7934 C.2       1 <0>        -0.0553
     27 C19         0.7970   -1.9309    3.5979 C.2       1 <0>        -0.1245
     28 C20         1.0352    0.4836    7.0562 C.3       1 <0>         0.0274
     29 C21         2.2420   -1.7127   -0.1286 C.3       1 <0>        -0.1592
     30 H5          0.4374    2.6989    0.2319 H         1 <0>         0.0591
     31 H6         -0.3346    2.2666   -1.3126 H         1 <0>         0.0682
     32 H7         -1.0922    1.7888    0.2255 H         1 <0>         0.0704
     33 H8          2.4747    0.5359   -1.5531 H         1 <0>         0.0919
     34 H9          2.5317    1.7746   -0.2179 H         1 <0>         0.0970
     35 H10         0.8682    1.3269    4.6167 H         1 <0>         0.0847
     36 H11        -0.4772    0.1674    4.7813 H         1 <0>         0.0535
     37 H12        -0.0964   -1.6959    6.5698 H         1 <0>         0.0450
     38 H13         2.8711   -2.2619    6.6836 H         1 <0>         0.0839
     39 H14         1.7692   -1.8876    8.0309 H         1 <0>         0.0769
     40 H15         2.1895   -4.5891    9.0756 H         1 <0>         0.1697
     41 H16        -0.5638   -4.3978    3.0553 H         1 <0>         0.1219
     42 H17        -0.8932   -6.7491    3.6189 H         1 <0>         0.1224
     43 H18        -0.1602   -7.7320    5.7460 H         1 <0>         0.1286
     44 H19         0.6651   -2.5458    2.7199 H         1 <0>         0.1168
     45 H20        -0.0285    0.4913    7.2944 H         1 <0>         0.0292
     46 H21         1.5913    0.0565    7.8907 H         1 <0>         0.0745
     47 H22         1.3749    1.5038    6.8775 H         1 <0>         0.0735
     48 H23         3.0715   -1.8178   -0.8278 H         1 <0>         0.0770
     49 H24         2.3364   -2.4574    0.6617 H         1 <0>         0.0645
     50 H25         1.3003   -1.8613   -0.6571 H         1 <0>         0.0631
@<TRIPOS>BOND
     1    1    2 1
     2    1   30 1
     3    1   31 1
     4    1   32 1
     5    2    3 1
     6    2    7 1
     7    2    4 1
     8    4    5 1
     9    4   33 1
    10    4   34 1
    11    5    6 1
    12    5    7 1
    13    5   29 1
    14    7    8 am
    15    8    9 2
    16    8   10 1
    17   10   11 1
    18   10   27 1
    19   10   12 1
    20   12   13 1
    21   12   35 1
    22   12   36 1
    23   13   14 1
    24   13   28 1
    25   14   26 1
    26   14   15 1
    27   14   37 1
    28   15   16 1
    29   15   38 1
    30   15   39 1
    31   16   21 1
    32   16   17 2
    33   17   18 1
    34   17   40 1
    35   18   19 1
    36   18   20 1
    37   20   25 ar
    38   20   21 ar
    39   21   22 ar
    40   22   23 ar
    41   22   26 1
    42   23   24 ar
    43   23   41 1
    44   24   25 ar
    45   24   42 1
    46   25   43 1
    47   26   27 2
    48   27   44 1
    49   28   45 1
    50   28   46 1
    51   28   47 1
    52   29   48 1
    53   29   49 1
    54   29   50 1
@<TRIPOS>MOLECULE
CHEMBL343755__1
   51    55     0     0     0
SMALL
USER_CHARGES

@<TRIPOS>ATOM
      1 C1         -0.1525    1.9302   -0.2847 C.3       1 <0>        -0.1623
      2 C2          0.6302    0.6158   -0.3070 C.3       1 <0>         0.1332
      3 H1          0.1749   -0.1348   -0.9531 H         1 <0>         0.1005
      4 C3          2.1336    0.8036   -0.5535 C.3       1 <0>        -0.1493
      5 C4          2.2627   -0.3170    0.4874 C.3       1 <0>         0.1216
      6 H2          3.0931   -0.1738    1.1788 H         1 <0>         0.0899
      7 N1          0.9643    0.1103    1.0330 N.am      1 <0>        -0.6344
      8 C5          0.3514    0.0614    2.2324 C.2       1 <0>         0.5559
      9 O1         -0.7968    0.4361    2.3424 O.2       1 <0>        -0.5214
     10 C6          1.0929   -0.4589    3.4368 C.3       1 <0>        -0.0937
     11 H3          2.1637   -0.3043    3.3046 H         1 <0>         0.1257
     12 C7          0.6155    0.2753    4.6953 C.3       1 <0>         0.0071
     13 N2          1.2947   -0.3039    5.8567 N.4       1 <0>        -0.3777
     14 C8          0.8910   -1.6843    6.0873 C.3       1 <0>         0.0708
     15 C9          1.8571   -2.3408    7.0836 C.3       1 <0>        -0.0392
     16 C10         1.5119   -3.7994    7.2303 C.2       1 <0>        -0.2012
     17 C11         1.6858   -4.7178    8.1749 C.2       1 <0>         0.0970
     18 N3          1.1660   -5.9354    7.7637 N.pl3     1 <0>        -0.5869
     19 H4          1.1809   -6.7497    8.2906 H         1 <0>         0.4249
     20 C12         0.6311   -5.8269    6.5157 C.ar      1 <0>         0.1111
     21 C13         0.8247   -4.4927    6.1471 C.ar      1 <0>        -0.1241
     22 C14         0.4131   -3.9097    4.9305 C.ar      1 <0>        -0.0305
     23 C15        -0.2119   -4.7586    4.0456 C.ar      1 <0>        -0.1004
     24 C16        -0.4060   -6.0945    4.3899 C.ar      1 <0>        -0.0993
     25 C17        -0.0076   -6.6582    5.5965 C.ar      1 <0>        -0.0961
     26 C18         0.7151   -2.4697    4.8154 C.2       1 <0>        -0.0588
     27 C19         0.8092   -1.9272    3.6131 C.2       1 <0>        -0.1264
     28 C20         0.9718    0.4942    7.0470 C.3       1 <0>        -0.0511
     29 C21         2.2355   -1.7204   -0.1216 C.3       1 <0>        -0.1626
     30 H5          0.4311    2.6919    0.2323 H         1 <0>         0.0599
     31 H6         -0.3480    2.2541   -1.3070 H         1 <0>         0.0756
     32 H7         -1.0982    1.7812    0.2363 H         1 <0>         0.0718
     33 H8          2.4607    0.5234   -1.5548 H         1 <0>         0.0998
     34 H9          2.5236    1.7667   -0.2241 H         1 <0>         0.1004
     35 H10         0.8621    1.3341    4.6173 H         1 <0>         0.1445
     36 H11        -0.4623    0.1542    4.8032 H         1 <0>         0.1473
     37 H12        -0.0816   -1.6515    6.5784 H         1 <0>         0.1403
     38 H13         2.8788   -2.2443    6.7163 H         1 <0>         0.0934
     39 H14         1.7709   -1.8478    8.0519 H         1 <0>         0.1008
     40 H15         2.1642   -4.5409    9.1269 H         1 <0>         0.1765
     41 H16        -0.5508   -4.3905    3.0884 H         1 <0>         0.1278
     42 H17        -0.8986   -6.7341    3.6725 H         1 <0>         0.1318
     43 H18        -0.1858   -7.7010    5.8137 H         1 <0>         0.1379
     44 H19         0.6793   -2.5492    2.7399 H         1 <0>         0.1448
     45 H20        -0.1060    0.4850    7.2092 H         1 <0>         0.1268
     46 H21         1.4737    0.0695    7.9164 H         1 <0>         0.1297
     47 H22         1.3082    1.5203    6.8986 H         1 <0>         0.1311
     48 H23         3.0643   -1.8289   -0.8212 H         1 <0>         0.0838
     49 H24         2.3298   -2.4624    0.6713 H         1 <0>         0.0634
     50 H25         1.2932   -1.8695   -0.6487 H         1 <0>         0.0678
     51 H26         2.2915   -0.2743    5.7032 H         1 <0>         0.4225
@<TRIPOS>BOND
     1    1    2 1
     2    1   30 1
     3    1   31 1
     4    1   32 1
     5    2    3 1
     6    2    7 1
     7    2    4 1
     8    4    5 1
     9    4   33 1
    10    4   34 1
    11    5    6 1
    12    5    7 1
    13    5   29 1
    14    7    8 am
    15    8    9 2
    16    8   10 1
    17   10   11 1
    18   10   27 1
    19   10   12 1
    20   12   13 1
    21   12   35 1
    22   12   36 1
    23   13   14 1
    24   13   28 1
    25   13   51 1
    26   14   26 1
    27   14   15 1
    28   14   37 1
    29   15   16 1
    30   15   38 1
    31   15   39 1
    32   16   21 1
    33   16   17 2
    34   17   18 1
    35   17   40 1
    36   18   19 1
    37   18   20 1
    38   20   25 ar
    39   20   21 ar
    40   21   22 ar
    41   22   23 ar
    42   22   26 1
    43   23   24 ar
    44   23   41 1
    45   24   25 ar
    46   24   42 1
    47   25   43 1
    48   26   27 2
    49   27   44 1
    50   28   45 1
    51   28   46 1
    52   28   47 1
    53   29   48 1
    54   29   49 1
    55   29   50 1
@<TRIPOS>MOLECULE
CHEMBL343755__2
   50    54     0     0     0
SMALL
USER_CHARGES

@<TRIPOS>ATOM
      1 C1         -0.1510    1.9010   -0.3082 C.3       1 <0>        -0.1595
      2 C2          0.6388    0.5906   -0.3125 C.3       1 <0>         0.1298
      3 H1          0.1915   -0.1688   -0.9538 H         1 <0>         0.0923
      4 C3          2.1427    0.7842   -0.5517 C.3       1 <0>        -0.1491
      5 C4          2.2713   -0.3253    0.5012 C.3       1 <0>         0.1229
      6 H2          3.0967   -0.1706    1.1961 H         1 <0>         0.0902
      7 N1          0.9673    0.1004    1.0346 N.am      1 <0>        -0.6407
      8 C5          0.3474    0.0601    2.2306 C.2       1 <0>         0.5553
      9 O1         -0.8035    0.4297    2.3298 O.2       1 <0>        -0.5321
     10 C6          1.0842   -0.4441    3.4446 C.3       1 <0>        -0.0635
     11 H3          2.1548   -0.2834    3.3185 H         1 <0>         0.1097
     12 C7          0.5926    0.2974    4.6940 C.3       1 <0>         0.0728
     13 N2          1.2829   -0.2548    5.8632 N.3       1 <0>        -0.5396
     14 C8          0.9874   -1.6572    6.1001 C.3       1 <0>         0.1322
     15 C9         -0.1395   -1.8099    7.1287 C.3       1 <0>        -0.0600
     16 C10        -0.4443   -3.2761    7.3055 C.2       1 <0>        -0.1670
     17 C11        -0.9688   -4.0174    8.2752 C.2       1 <0>         0.0575
     18 N3         -1.0232   -5.3475    7.8881 N.pl3     1 <0>        -0.5948
     19 H4         -1.3692   -6.0695    8.4357 H         1 <0>         0.4163
     20 C12        -0.5221   -5.4976    6.6303 C.ar      1 <0>         0.1112
     21 C13        -0.1427   -4.2135    6.2296 C.ar      1 <0>        -0.1316
     22 C14         0.4422   -3.8821    4.9884 C.ar      1 <0>        -0.0021
     23 C15         0.6311   -4.9313    4.1194 C.ar      1 <0>        -0.1283
     24 C16         0.2536   -6.2181    4.4979 C.ar      1 <0>        -0.0960
     25 C17        -0.3159   -6.5377    5.7250 C.ar      1 <0>        -0.1221
     26 C18         0.7574   -2.4481    4.8404 C.2       1 <0>        -0.0562
     27 C19         0.8089   -1.9132    3.6332 C.2       1 <0>        -0.1250
     28 C20         1.0134    0.5498    7.0623 C.3       1 <0>         0.0235
     29 C21         2.2555   -1.7347   -0.0939 C.3       1 <0>        -0.1591
     30 H5          0.4252    2.6709    0.2048 H         1 <0>         0.0591
     31 H6         -0.3420    2.2135   -1.3348 H         1 <0>         0.0682
     32 H7         -1.0991    1.7520    0.2086 H         1 <0>         0.0704
     33 H8          2.4775    0.4958   -1.5481 H         1 <0>         0.0919
     34 H9          2.5254    1.7526   -0.2296 H         1 <0>         0.0969
     35 H10         0.8194    1.3596    4.6025 H         1 <0>         0.0840
     36 H11        -0.4828    0.1575    4.8036 H         1 <0>         0.0538
     37 H12         1.8744   -2.0808    6.5711 H         1 <0>         0.0867
     38 H13         0.1761   -1.3852    8.0816 H         1 <0>         0.0837
     39 H14        -1.0305   -1.2922    6.7735 H         1 <0>         0.0720
     40 H15        -1.3052   -3.6379    9.2287 H         1 <0>         0.1690
     41 H16         1.0704   -4.7586    3.1480 H         1 <0>         0.1227
     42 H17         0.4137   -7.0194    3.7917 H         1 <0>         0.1226
     43 H18        -0.5884   -7.5541    5.9682 H         1 <0>         0.1285
     44 H19         0.6499   -2.5390    2.7674 H         1 <0>         0.1179
     45 H20        -0.0489    0.5009    7.3015 H         1 <0>         0.0360
     46 H21         1.5926    0.1599    7.8993 H         1 <0>         0.0738
     47 H22         1.2965    1.5858    6.8759 H         1 <0>         0.0717
     48 H23         3.0885   -1.8454   -0.7881 H         1 <0>         0.0771
     49 H24         2.3500   -2.4683    0.7068 H         1 <0>         0.0643
     50 H25         1.3168   -1.8947   -0.6243 H         1 <0>         0.0631
@<TRIPOS>BOND
     1    1    2 1
     2    1   30 1
     3    1   31 1
     4    1   32 1
     5    2    3 1
     6    2    7 1
     7    2    4 1
     8    4    5 1
     9    4   33 1
    10    4   34 1
    11    5    6 1
    12    5    7 1
    13    5   29 1
    14    7    8 am
    15    8    9 2
    16    8   10 1
    17   10   11 1
    18   10   27 1
    19   10   12 1
    20   12   13 1
    21   12   35 1
    22   12   36 1
    23   13   14 1
    24   13   28 1
    25   14   26 1
    26   14   15 1
    27   14   37 1
    28   15   16 1
    29   15   38 1
    30   15   39 1
    31   16   21 1
    32   16   17 2
    33   17   18 1
    34   17   40 1
    35   18   19 1
    36   18   20 1
    37   20   25 ar
    38   20   21 ar
    39   21   22 ar
    40   22   23 ar
    41   22   26 1
    42   23   24 ar
    43   23   41 1
    44   24   25 ar
    45   24   42 1
    46   25   43 1
    47   26   27 2
    48   27   44 1
    49   28   45 1
    50   28   46 1
    51   28   47 1
    52   29   48 1
    53   29   49 1
    54   29   50 1
@<TRIPOS>MOLECULE
CHEMBL343755__3
   51    55     0     0     0
SMALL
USER_CHARGES

@<TRIPOS>ATOM
      1 C1         -0.1576    1.9069   -0.2939 C.3       1 <0>        -0.1623
      2 C2          0.6284    0.5943   -0.3051 C.3       1 <0>         0.1331
      3 H1          0.1751   -0.1629   -0.9448 H         1 <0>         0.1004
      4 C3          2.1314    0.7839   -0.5530 C.3       1 <0>        -0.1492
      5 C4          2.2631   -0.3277    0.4974 C.3       1 <0>         0.1216
      6 H2          3.0931   -0.1765    1.1876 H         1 <0>         0.0899
      7 N1          0.9636    0.1009    1.0392 N.am      1 <0>        -0.6347
      8 C5          0.3507    0.0606    2.2389 C.2       1 <0>         0.5561
      9 O1         -0.7985    0.4334    2.3456 O.2       1 <0>        -0.5210
     10 C6          1.0932   -0.4477    3.4477 C.3       1 <0>        -0.0936
     11 H3          2.1636   -0.2884    3.3169 H         1 <0>         0.1261
     12 C7          0.6085    0.2893    4.7025 C.3       1 <0>         0.0036
     13 N2          1.3174   -0.2519    5.8645 N.4       1 <0>        -0.3729
     14 C8          1.0001   -1.6478    6.1013 C.3       1 <0>         0.0673
     15 C9         -0.1248   -1.7881    7.1334 C.3       1 <0>        -0.0406
     16 C10        -0.4367   -3.2518    7.3195 C.2       1 <0>        -0.2018
     17 C11        -0.9627   -3.9845    8.2948 C.2       1 <0>         0.0960
     18 N3         -1.0256   -5.3164    7.9154 N.pl3     1 <0>        -0.5871
     19 H4         -1.3748   -6.0333    8.4678 H         1 <0>         0.4248
     20 C12        -0.5282   -5.4765    6.6574 C.ar      1 <0>         0.1116
     21 C13        -0.1423   -4.1969    6.2484 C.ar      1 <0>        -0.1256
     22 C14         0.4423   -3.8764    5.0041 C.ar      1 <0>        -0.0299
     23 C15         0.6234   -4.9317    4.1412 C.ar      1 <0>        -0.1015
     24 C16         0.2390   -6.2140    4.5277 C.ar      1 <0>        -0.0992
     25 C17        -0.3301   -6.5232    5.7578 C.ar      1 <0>        -0.0970
     26 C18         0.7646   -2.4449    4.8474 C.2       1 <0>        -0.0589
     27 C19         0.8155   -1.9171    3.6363 C.2       1 <0>        -0.1239
     28 C20         0.9490    0.5286    7.0532 C.3       1 <0>        -0.0563
     29 C21         2.2396   -1.7361   -0.0997 C.3       1 <0>        -0.1625
     30 H5          0.4240    2.6744    0.2168 H         1 <0>         0.0600
     31 H6         -0.3537    2.2216   -1.3189 H         1 <0>         0.0756
     32 H7         -1.1030    1.7599    0.2282 H         1 <0>         0.0717
     33 H8          2.4593    0.4960   -1.5518 H         1 <0>         0.0998
     34 H9          2.5189    1.7506   -0.2316 H         1 <0>         0.1003
     35 H10         0.8217    1.3540    4.6069 H         1 <0>         0.1439
     36 H11        -0.4640    0.1376    4.8246 H         1 <0>         0.1463
     37 H12         1.8814   -2.0808    6.5745 H         1 <0>         0.1391
     38 H13         0.1954   -1.3594    8.0830 H         1 <0>         0.1043
     39 H14        -1.0140   -1.2677    6.7773 H         1 <0>         0.0933
     40 H15        -1.2936   -3.5979    9.2475 H         1 <0>         0.1765
     41 H16         1.0615   -4.7673    3.1678 H         1 <0>         0.1279
     42 H17         0.3928   -7.0203    3.8258 H         1 <0>         0.1317
     43 H18        -0.6085   -7.5364    6.0073 H         1 <0>         0.1376
     44 H19         0.6550   -2.5451    2.7724 H         1 <0>         0.1454
     45 H20        -0.1269    0.4604    7.2136 H         1 <0>         0.1303
     46 H21         1.4720    0.1331    7.9239 H         1 <0>         0.1310
     47 H22         1.2288    1.5715    6.9041 H         1 <0>         0.1298
     48 H23         3.0701   -1.8493   -0.7965 H         1 <0>         0.0839
     49 H24         2.3333   -2.4713    0.6996 H         1 <0>         0.0631
     50 H25         1.2987   -1.8913   -0.6277 H         1 <0>         0.0678
     51 H26         2.3109   -0.1635    5.7120 H         1 <0>         0.4279
@<TRIPOS>BOND
     1    1    2 1
     2    1   30 1
     3    1   31 1
     4    1   32 1
     5    2    3 1
     6    2    7 1
     7    2    4 1
     8    4    5 1
     9    4   33 1
    10    4   34 1
    11    5    6 1
    12    5    7 1
    13    5   29 1
    14    7    8 am
    15    8    9 2
    16    8   10 1
    17   10   11 1
    18   10   27 1
    19   10   12 1
    20   12   13 1
    21   12   35 1
    22   12   36 1
    23   13   14 1
    24   13   28 1
    25   13   51 1
    26   14   26 1
    27   14   15 1
    28   14   37 1
    29   15   16 1
    30   15   38 1
    31   15   39 1
    32   16   21 1
    33   16   17 2
    34   17   18 1
    35   17   40 1
    36   18   19 1
    37   18   20 1
    38   20   25 ar
    39   20   21 ar
    40   21   22 ar
    41   22   23 ar
    42   22   26 1
    43   23   24 ar
    44   23   41 1
    45   24   25 ar
    46   24   42 1
    47   25   43 1
    48   26   27 2
    49   27   44 1
    50   28   45 1
    51   28   46 1
    52   28   47 1
    53   29   48 1
    54   29   49 1
    55   29   50 1
@<TRIPOS>MOLECULE
CHEMBL43850
   46    49     0     0     0
SMALL
USER_CHARGES

@<TRIPOS>ATOM
      1 C1         -0.0030    1.2399   -1.2800 C.ar      1 <0>        -0.0768
      2 C2          1.1737    1.9716   -1.2145 C.ar      1 <0>        -0.0772
      3 C3          2.3879    1.3323   -1.0875 C.ar      1 <0>        -0.0823
      4 C4          2.4348   -0.0573   -1.0245 C.ar      1 <0>         0.0703
      5 C5          1.2434   -0.7981   -1.0908 C.ar      1 <0>         0.0727
      6 C6          0.0256   -0.1365   -1.2190 C.ar      1 <0>        -0.0821
      7 N1          1.6008   -2.1181   -1.0052 N.pl3     1 <0>        -0.5521
      8 H1          0.9917   -2.8728   -1.0236 H         1 <0>         0.4591
      9 C7          2.9253   -2.1894   -0.8934 C.cat     1 <0>         0.6518
     10 N2          3.4521   -0.9670   -0.9022 N.pl3     1 <0>        -0.5523
     11 N3          3.6446   -3.3561   -0.7846 N.pl3     1 <0>        -0.6726
     12 C8          5.1041   -3.3085   -0.6667 C.3       1 <0>         0.0717
     13 C9          5.6539   -4.7323   -0.5609 C.3       1 <0>         0.1028
     14 C10         7.1628   -4.6793   -0.3130 C.3       1 <0>         0.0456
     15 O1          7.6571   -6.0028   -0.0984 O.3       1 <0>        -0.2216
     16 N4          9.0512   -6.0650    0.1418 N.2       1 <0>        -0.3452
     17 C11         9.6149   -7.1949    0.3488 C.2       1 <0>         0.2150
     18 C12         8.7794   -8.4437    0.4652 C.3       1 <0>        -0.1608
     19 C13         7.5442   -8.3859    1.3662 C.3       1 <0>        -0.1534
     20 C14         8.7798   -9.1710    1.8112 C.3       1 <0>        -0.1605
     21 C15        11.1142   -7.2768    0.4762 C.3       1 <0>        -0.1159
     22 C16        11.7643   -6.5457    1.6526 C.3       1 <0>        -0.1552
     23 C17        11.9150   -5.9960    0.2327 C.3       1 <0>        -0.1597
     24 O2          5.3957   -5.4344   -1.7785 O.3       1 <0>        -0.5429
     25 H2         -0.9487    1.7528   -1.3750 H         1 <0>         0.1552
     26 H3          1.1380    3.0499   -1.2637 H         1 <0>         0.1551
     27 H4          3.3004    1.9078   -1.0374 H         1 <0>         0.1504
     28 H5         -0.8942   -0.7001   -1.2709 H         1 <0>         0.1510
     29 H6          3.1858   -4.2107   -0.7859 H         1 <0>         0.4437
     30 H7          5.5240   -2.8213   -1.5468 H         1 <0>         0.0971
     31 H8          5.3784   -2.7458    0.2256 H         1 <0>         0.1028
     32 H9          5.1677   -5.2490    0.2665 H         1 <0>         0.1252
     33 H10         7.6583   -4.2425   -1.1800 H         1 <0>         0.0664
     34 H11         7.3651   -4.0687    0.5670 H         1 <0>         0.0692
     35 H12         8.7172   -9.0533   -0.4363 H         1 <0>         0.1245
     36 H13         7.3359   -7.4447    1.8748 H         1 <0>         0.0914
     37 H14         6.6690   -8.9575    1.0576 H         1 <0>         0.0994
     38 H15         8.7173  -10.2591    1.7954 H         1 <0>         0.1041
     39 H16         9.3842   -8.7462    2.6127 H         1 <0>         0.0990
     40 H17        11.5623   -8.2184    0.1589 H         1 <0>         0.1350
     41 H18        11.1074   -6.0054    2.3343 H         1 <0>         0.0958
     42 H19        12.6401   -7.0063    2.1096 H         1 <0>         0.1077
     43 H20        12.8899   -6.0950   -0.2445 H         1 <0>         0.1046
     44 H21        11.3573   -5.0941   -0.0197 H         1 <0>         0.1034
     45 H22         5.7991   -5.0300   -2.5588 H         1 <0>         0.3842
     46 H23         4.3964   -0.7559   -0.8339 H         1 <0>         0.4564
@<TRIPOS>BOND
     1    1    6 ar
     2    1    2 ar
     3    1   25 1
     4    2    3 ar
     5    2   26 1
     6    3    4 ar
     7    3   27 1
     8    4   10 1
     9    4    5 ar
    10    5    6 ar
    11    5    7 1
    12    6   28 1
    13    7    8 1
    14    7    9 1
    15    9   10 2
    16    9   11 1
    17   10   46 1
    18   11   12 1
    19   11   29 1
    20   12   13 1
    21   12   30 1
    22   12   31 1
    23   13   14 1
    24   13   24 1
    25   13   32 1
    26   14   15 1
    27   14   33 1
    28   14   34 1
    29   15   16 1
    30   16   17 2
    31   17   18 1
    32   17   21 1
    33   18   20 1
    34   18   19 1
    35   18   35 1
    36   19   20 1
    37   19   36 1
    38   19   37 1
    39   20   38 1
    40   20   39 1
    41   21   23 1
    42   21   22 1
    43   21   40 1
    44   22   23 1
    45   22   41 1
    46   22   42 1
    47   23   43 1
    48   23   44 1
    49   24   45 1
@<TRIPOS>MOLECULE
CHEMBL43850__1
   45    48     0     0     0
SMALL
USER_CHARGES

@<TRIPOS>ATOM
      1 C1          0.1043    1.2976    1.2301 C.ar      1 <0>        -0.1165
      2 C2          1.2978    2.0016    1.2922 C.ar      1 <0>        -0.1186
      3 C3          2.5034    1.3423    1.2052 C.ar      1 <0>        -0.0818
      4 C4          2.5253   -0.0464    1.0536 C.ar      1 <0>         0.0833
      5 C5          1.3139   -0.7543    0.9917 C.ar      1 <0>         0.0368
      6 C6          0.1090   -0.0739    1.0806 C.ar      1 <0>        -0.1044
      7 N1          1.6546   -2.0887    0.8420 N.pl3     1 <0>        -0.6236
      8 H1          1.0392   -2.8349    0.7685 H         1 <0>         0.4174
      9 C7          3.0181   -2.1581    0.8172 C.2       1 <0>         0.5489
     10 N2          3.5273   -0.9578    0.9416 N.2       1 <0>        -0.5450
     11 N3          3.7499   -3.3190    0.6819 N.pl3     1 <0>        -0.7014
     12 C8          3.0635   -4.6066    0.5508 C.3       1 <0>         0.0955
     13 C9          4.0987   -5.7251    0.4162 C.3       1 <0>         0.1058
     14 C10         3.3843   -7.0525    0.1546 C.3       1 <0>         0.0453
     15 O1          4.3527   -8.0752   -0.0865 O.3       1 <0>        -0.2174
     16 N4          3.7924   -9.3505   -0.3411 N.2       1 <0>        -0.3436
     17 C11         4.5565  -10.3505   -0.5721 C.2       1 <0>         0.2035
     18 C12         3.9687  -11.7307   -0.7153 C.3       1 <0>        -0.1113
     19 C13         3.0137  -11.9739   -1.8857 C.3       1 <0>        -0.1575
     20 C14         2.4688  -11.8899   -0.4585 C.3       1 <0>        -0.1612
     21 C15         6.0443  -10.1481   -0.7010 C.3       1 <0>        -0.1579
     22 C16         6.5266   -8.9993   -1.5890 C.3       1 <0>        -0.1521
     23 C17         6.6829  -10.4470   -2.0588 C.3       1 <0>        -0.1632
     24 O2          4.8556   -5.8215    1.6245 O.3       1 <0>        -0.5439
     25 H2         -0.8347    1.8261    1.3038 H         1 <0>         0.1288
     26 H3          1.2814    3.0751    1.4094 H         1 <0>         0.1290
     27 H4          3.4289    1.8967    1.2535 H         1 <0>         0.1286
     28 H5         -0.8237   -0.6163    1.0332 H         1 <0>         0.1199
     29 H6          4.7192   -3.2831    0.6736 H         1 <0>         0.4296
     30 H7          2.4505   -4.7832    1.4346 H         1 <0>         0.0703
     31 H8          2.4282   -4.5911   -0.3348 H         1 <0>         0.0756
     32 H9          4.7679   -5.5027   -0.4149 H         1 <0>         0.1186
     33 H10         2.7831   -7.3190    1.0239 H         1 <0>         0.0629
     34 H11         2.7377   -6.9515   -0.7171 H         1 <0>         0.0667
     35 H12         4.6202  -12.5524   -0.4179 H         1 <0>         0.1323
     36 H13         2.8106  -11.1356   -2.5521 H         1 <0>         0.0959
     37 H14         3.0369  -12.9557   -2.3586 H         1 <0>         0.1050
     38 H15         2.1336  -12.8165    0.0076 H         1 <0>         0.1024
     39 H16         1.9072  -10.9964   -0.1859 H         1 <0>         0.1044
     40 H17         6.6285  -10.3747    0.1908 H         1 <0>         0.1223
     41 H18         5.7678   -8.3899   -2.0800 H         1 <0>         0.0933
     42 H19         7.4284   -8.4698   -1.2814 H         1 <0>         0.1000
     43 H20         7.6875  -10.8699   -2.0603 H         1 <0>         0.1014
     44 H21         6.0270  -10.7900   -2.8589 H         1 <0>         0.0971
     45 H22         4.3232   -6.0181    2.4074 H         1 <0>         0.3787
@<TRIPOS>BOND
     1    1    6 ar
     2    1    2 ar
     3    1   25 1
     4    2    3 ar
     5    2   26 1
     6    3    4 ar
     7    3   27 1
     8    4   10 1
     9    4    5 ar
    10    5    6 ar
    11    5    7 1
    12    6   28 1
    13    7    8 1
    14    7    9 1
    15    9   10 2
    16    9   11 1
    17   11   12 1
    18   11   29 1
    19   12   13 1
    20   12   30 1
    21   12   31 1
    22   13   14 1
    23   13   24 1
    24   13   32 1
    25   14   15 1
    26   14   33 1
    27   14   34 1
    28   15   16 1
    29   16   17 2
    30   17   18 1
    31   17   21 1
    32   18   20 1
    33   18   19 1
    34   18   35 1
    35   19   20 1
    36   19   36 1
    37   19   37 1
    38   20   38 1
    39   20   39 1
    40   21   23 1
    41   21   22 1
    42   21   40 1
    43   22   23 1
    44   22   41 1
    45   22   42 1
    46   23   43 1
    47   23   44 1
    48   24   45 1
@<TRIPOS>MOLECULE
CHEMBL43850__2
   46    49     0     0     0
SMALL
USER_CHARGES

@<TRIPOS>ATOM
      1 C1          0.0107    1.3621   -1.2848 C.ar      1 <0>        -0.0768
      2 C2          1.1940    2.0830   -1.2169 C.ar      1 <0>        -0.0772
      3 C3          2.4022    1.4326   -1.0894 C.ar      1 <0>        -0.0824
      4 C4          2.4364    0.0425   -1.0282 C.ar      1 <0>         0.0703
      5 C5          1.2385   -0.6873   -1.0969 C.ar      1 <0>         0.0727
      6 C6          0.0268   -0.0145   -1.2257 C.ar      1 <0>        -0.0821
      7 N1          1.5838   -2.0106   -1.0128 N.pl3     1 <0>        -0.5521
      8 H1          0.9679   -2.7598   -1.0329 H         1 <0>         0.4591
      9 C7          2.9075   -2.0941   -0.8995 C.cat     1 <0>         0.6518
     10 N2          3.4453   -0.8765   -0.9059 N.pl3     1 <0>        -0.5523
     11 N3          3.6161   -3.2674   -0.7914 N.pl3     1 <0>        -0.6722
     12 C8          5.0758   -3.2331   -0.6718 C.3       1 <0>         0.0715
     13 C9          5.6126   -4.6621   -0.5673 C.3       1 <0>         0.1028
     14 C10         7.1370   -4.6263   -0.4423 C.3       1 <0>         0.0457
     15 O1          7.6480   -5.9607   -0.4619 O.3       1 <0>        -0.2218
     16 N4          9.0575   -6.0394   -0.3514 N.2       1 <0>        -0.3454
     17 C11         9.6369   -7.1802   -0.3566 C.2       1 <0>         0.2151
     18 C12         8.8146   -8.4430   -0.3503 C.3       1 <0>        -0.1633
     19 C13         7.6607   -8.5296    0.6507 C.3       1 <0>        -0.1495
     20 C14         8.9297   -9.3549    0.8730 C.3       1 <0>        -0.1614
     21 C15        11.1417   -7.2610   -0.3690 C.3       1 <0>        -0.1160
     22 C16        11.8895   -6.6971    0.8409 C.3       1 <0>        -0.1551
     23 C17        11.9186   -5.9487   -0.4933 C.3       1 <0>        -0.1599
     24 O2          5.0550   -5.2973    0.5849 O.3       1 <0>        -0.5430
     25 H2         -0.9301    1.8837   -1.3802 H         1 <0>         0.1551
     26 H3          1.1682    3.1616   -1.2647 H         1 <0>         0.1551
     27 H4          3.3198    1.9998   -1.0374 H         1 <0>         0.1504
     28 H5         -0.8979   -0.5698   -1.2794 H         1 <0>         0.1509
     29 H6          3.1495   -4.1178   -0.7944 H         1 <0>         0.4442
     30 H7          5.5011   -2.7486   -1.5507 H         1 <0>         0.1033
     31 H8          5.3541   -2.6742    0.2217 H         1 <0>         0.0964
     32 H9          5.3343   -5.2210   -1.4607 H         1 <0>         0.1263
     33 H10         7.5569   -4.0642   -1.2765 H         1 <0>         0.0707
     34 H11         7.4135   -4.1451    0.4958 H         1 <0>         0.0647
     35 H12         8.6758   -8.9186   -1.3212 H         1 <0>         0.1235
     36 H13         7.4963   -7.6732    1.3046 H         1 <0>         0.0939
     37 H14         6.7624   -9.0621    0.3383 H         1 <0>         0.0989
     38 H15         8.8663  -10.4303    0.7068 H         1 <0>         0.1036
     39 H16         9.6002   -9.0413    1.6731 H         1 <0>         0.0986
     40 H17        11.5612   -8.1421   -0.8545 H         1 <0>         0.1349
     41 H18        11.2930   -6.2678    1.6458 H         1 <0>         0.0959
     42 H19        12.8011   -7.2074    1.1517 H         1 <0>         0.1076
     43 H20        12.8494   -5.9667   -1.0602 H         1 <0>         0.1045
     44 H21        11.3413   -5.0270   -0.5660 H         1 <0>         0.1034
     45 H22         5.2626   -4.8529    1.4182 H         1 <0>         0.3833
     46 H23         4.3914   -0.6740   -0.8362 H         1 <0>         0.4564
@<TRIPOS>BOND
     1    1    6 ar
     2    1    2 ar
     3    1   25 1
     4    2    3 ar
     5    2   26 1
     6    3    4 ar
     7    3   27 1
     8    4   10 1
     9    4    5 ar
    10    5    6 ar
    11    5    7 1
    12    6   28 1
    13    7    8 1
    14    7    9 1
    15    9   10 2
    16    9   11 1
    17   10   46 1
    18   11   12 1
    19   11   29 1
    20   12   13 1
    21   12   30 1
    22   12   31 1
    23   13   14 1
    24   13   24 1
    25   13   32 1
    26   14   15 1
    27   14   33 1
    28   14   34 1
    29   15   16 1
    30   16   17 2
    31   17   18 1
    32   17   21 1
    33   18   20 1
    34   18   19 1
    35   18   35 1
    36   19   20 1
    37   19   36 1
    38   19   37 1
    39   20   38 1
    40   20   39 1
    41   21   23 1
    42   21   22 1
    43   21   40 1
    44   22   23 1
    45   22   41 1
    46   22   42 1
    47   23   43 1
    48   23   44 1
    49   24   45 1
@<TRIPOS>MOLECULE
CHEMBL43850__3
   45    48     0     0     0
SMALL
USER_CHARGES

@<TRIPOS>ATOM
      1 C1         -0.0052    1.3288    1.2343 C.ar      1 <0>        -0.1166
      2 C2          1.1818    2.0435    1.2990 C.ar      1 <0>        -0.1186
      3 C3          2.3934    1.3951    1.2139 C.ar      1 <0>        -0.0819
      4 C4          2.4282    0.0068    1.0616 C.ar      1 <0>         0.0834
      5 C5          1.2233   -0.7120    0.9971 C.ar      1 <0>         0.0367
      6 C6          0.0121   -0.0425    1.0840 C.ar      1 <0>        -0.1044
      7 N1          1.5763   -2.0432    0.8473 N.pl3     1 <0>        -0.6236
      8 H1          0.9678   -2.7948    0.7722 H         1 <0>         0.4174
      9 C7          2.9404   -2.1002    0.8250 C.2       1 <0>         0.5490
     10 N2          3.4385   -0.8955    0.9510 N.2       1 <0>        -0.5451
     11 N3          3.6830   -3.2544    0.6905 N.pl3     1 <0>        -0.7011
     12 C8          3.0084   -4.5481    0.5573 C.3       1 <0>         0.0952
     13 C9          4.0539   -5.6571    0.4241 C.3       1 <0>         0.1058
     14 C10         3.3494   -7.0081    0.2851 C.3       1 <0>         0.0454
     15 O1          4.3228   -8.0544    0.2777 O.3       1 <0>        -0.2176
     16 N4          3.7718   -9.3527    0.1524 N.2       1 <0>        -0.3437
     17 C11         4.5410  -10.3751    0.1332 C.2       1 <0>         0.2036
     18 C12         3.9513  -11.7619    0.1298 C.3       1 <0>        -0.1114
     19 C13         3.1031  -12.1659   -1.0778 C.3       1 <0>        -0.1573
     20 C14         2.4324  -11.8840    0.2681 C.3       1 <0>        -0.1614
     21 C15         6.0368  -10.1923    0.1140 C.3       1 <0>        -0.1602
     22 C16         6.6119   -9.1784   -0.8771 C.3       1 <0>        -0.1482
     23 C17         6.7919  -10.6774   -1.1252 C.3       1 <0>        -0.1641
     24 O2          4.8576   -5.4177   -0.7330 O.3       1 <0>        -0.5436
     25 H2         -0.9491    1.8487    1.3064 H         1 <0>         0.1288
     26 H3          1.1554    3.1168    1.4168 H         1 <0>         0.1290
     27 H4          3.3138    1.9578    1.2643 H         1 <0>         0.1286
     28 H5         -0.9155   -0.5933    1.0346 H         1 <0>         0.1199
     29 H6          4.6519   -3.2098    0.6840 H         1 <0>         0.4301
     30 H7          2.3954   -4.7307    1.4399 H         1 <0>         0.0761
     31 H8          2.3746   -4.5378   -0.3294 H         1 <0>         0.0694
     32 H9          4.6877   -5.6674    1.3109 H         1 <0>         0.1192
     33 H10         2.6688   -7.1511    1.1243 H         1 <0>         0.0679
     34 H11         2.7858   -7.0297   -0.6476 H         1 <0>         0.0614
     35 H12         4.5628  -12.5340    0.5966 H         1 <0>         0.1322
     36 H13         2.9717  -11.4286   -1.8698 H         1 <0>         0.0959
     37 H14         3.1567  -13.2040   -1.4058 H         1 <0>         0.1049
     38 H15         2.0448  -12.7366    0.8257 H         1 <0>         0.1023
     39 H16         1.8598  -10.9612    0.3616 H         1 <0>         0.1044
     40 H17         6.5351  -10.2924    1.0782 H         1 <0>         0.1214
     41 H18         5.9084   -8.6436   -1.5152 H         1 <0>         0.0956
     42 H19         7.4887   -8.6112   -0.5648 H         1 <0>         0.0994
     43 H20         7.7871  -11.0963   -0.9761 H         1 <0>         0.1009
     44 H21         6.2068  -11.1287   -1.9265 H         1 <0>         0.0967
     45 H22         4.3583   -5.3953   -1.5608 H         1 <0>         0.3781
@<TRIPOS>BOND
     1    1    6 ar
     2    1    2 ar
     3    1   25 1
     4    2    3 ar
     5    2   26 1
     6    3    4 ar
     7    3   27 1
     8    4   10 1
     9    4    5 ar
    10    5    6 ar
    11    5    7 1
    12    6   28 1
    13    7    8 1
    14    7    9 1
    15    9   10 2
    16    9   11 1
    17   11   12 1
    18   11   29 1
    19   12   13 1
    20   12   30 1
    21   12   31 1
    22   13   14 1
    23   13   24 1
    24   13   32 1
    25   14   15 1
    26   14   33 1
    27   14   34 1
    28   15   16 1
    29   16   17 2
    30   17   18 1
    31   17   21 1
    32   18   20 1
    33   18   19 1
    34   18   35 1
    35   19   20 1
    36   19   36 1
    37   19   37 1
    38   20   38 1
    39   20   39 1
    40   21   23 1
    41   21   22 1
    42   21   40 1
    43   22   23 1
    44   22   41 1
    45   22   42 1
    46   23   43 1
    47   23   44 1
    48   24   45 1
@<TRIPOS>MOLECULE
CHEMBL43061
   45    47     0     0     0
SMALL
USER_CHARGES

@<TRIPOS>ATOM
      1 C1          0.9630    1.4302    0.0604 C.3       1 <0>        -0.1433
      2 C2          0.9816   -0.0767    0.0655 C.ar      1 <0>         0.0775
      3 C3          1.1079   -0.7893   -1.1199 C.ar      1 <0>        -0.1748
      4 C4          1.1220   -2.1689   -1.0811 C.ar      1 <0>         0.1543
      5 N1          1.0171   -2.8150    0.0648 N.ar      1 <0>        -0.5077
      6 C5          0.8947   -2.1719    1.2156 C.ar      1 <0>         0.4484
      7 C6          0.8789   -0.7810    1.2513 C.ar      1 <0>        -0.2095
      8 N2          0.7866   -2.8925    2.3994 N.pl3     1 <0>        -0.6957
      9 C7          0.6509   -2.1875    3.6764 C.3       1 <0>         0.0825
     10 C8          0.5513   -3.2064    4.8134 C.3       1 <0>         0.0999
     11 C9          0.2848   -2.4758    6.1310 C.3       1 <0>         0.0457
     12 O1          0.0763   -3.4321    7.1722 O.3       1 <0>        -0.2221
     13 N3         -0.1800   -2.8563    8.4402 N.2       1 <0>        -0.3447
     14 C10        -0.3835   -3.6086    9.4551 C.2       1 <0>         0.2134
     15 C11        -0.4786   -5.1022    9.2789 C.3       1 <0>        -0.1602
     16 C12        -1.3653   -5.6250    8.1470 C.3       1 <0>        -0.1535
     17 C13        -1.8180   -5.7677    9.6015 C.3       1 <0>        -0.1607
     18 C14        -0.5282   -3.0008   10.8265 C.3       1 <0>        -0.1156
     19 C15        -1.7188   -2.0699   11.0647 C.3       1 <0>        -0.1555
     20 C16        -0.3058   -1.4928   10.9580 C.3       1 <0>        -0.1597
     21 O2          1.7782   -3.9326    4.9110 O.3       1 <0>        -0.5458
     22 H1          1.9817    1.8064    0.1553 H         1 <0>         0.1069
     23 H2          0.5304    1.7850   -0.8750 H         1 <0>         0.0963
     24 H3          0.3637    1.7890    0.8971 H         1 <0>         0.0927
     25 H4          1.1939   -0.2692   -2.0624 H         1 <0>         0.1807
     26 H5          1.2197   -2.7269   -2.0006 H         1 <0>         0.2081
     27 H6          0.7835   -0.2586    2.1917 H         1 <0>         0.1757
     28 H7          0.8011   -3.8622    2.3798 H         1 <0>         0.4241
     29 H8          1.5214   -1.5508    3.8342 H         1 <0>         0.0962
     30 H9         -0.2498   -1.5738    3.6586 H         1 <0>         0.1017
     31 H10        -0.2656   -3.8989    4.6102 H         1 <0>         0.1206
     32 H11         1.1419   -1.8497    6.3791 H         1 <0>         0.0660
     33 H12        -0.6030   -1.8520    6.0275 H         1 <0>         0.0690
     34 H13         0.4289   -5.6612    9.5069 H         1 <0>         0.1241
     35 H14        -1.8798   -4.8887    7.5296 H         1 <0>         0.0915
     36 H15        -1.0410   -6.5281    7.6299 H         1 <0>         0.0989
     37 H16        -1.7916   -6.7647   10.0413 H         1 <0>         0.1039
     38 H17        -2.6304   -5.1253    9.9410 H         1 <0>         0.0990
     39 H18        -0.2078   -3.6310   11.6561 H         1 <0>         0.1346
     40 H19        -2.3975   -1.8970   10.2294 H         1 <0>         0.0958
     41 H20        -2.1820   -2.0876   12.0512 H         1 <0>         0.1074
     42 H21         0.1605   -1.1308   11.8743 H         1 <0>         0.1044
     43 H22        -0.0549   -0.9402   10.0525 H         1 <0>         0.1037
     44 H23         2.5499   -3.3785    5.0912 H         1 <0>         0.3833
     45 H24         1.0298   -3.7849    0.0640 H         1 <0>         0.4425
@<TRIPOS>BOND
     1    1    2 1
     2    1   22 1
     3    1   23 1
     4    1   24 1
     5    2    7 ar
     6    2    3 ar
     7    3    4 ar
     8    3   25 1
     9    4    5 ar
    10    4   26 1
    11    5    6 ar
    12    5   45 1
    13    6    7 ar
    14    6    8 1
    15    7   27 1
    16    8    9 1
    17    8   28 1
    18    9   10 1
    19    9   29 1
    20    9   30 1
    21   10   11 1
    22   10   21 1
    23   10   31 1
    24   11   12 1
    25   11   32 1
    26   11   33 1
    27   12   13 1
    28   13   14 2
    29   14   15 1
    30   14   18 1
    31   15   17 1
    32   15   16 1
    33   15   34 1
    34   16   17 1
    35   16   35 1
    36   16   36 1
    37   17   37 1
    38   17   38 1
    39   18   20 1
    40   18   19 1
    41   18   39 1
    42   19   20 1
    43   19   40 1
    44   19   41 1
    45   20   42 1
    46   20   43 1
    47   21   44 1
@<TRIPOS>MOLECULE
CHEMBL43061__1
   45    47     0     0     0
SMALL
USER_CHARGES

@<TRIPOS>ATOM
      1 C1          0.9623    1.5175    0.0339 C.3       1 <0>        -0.1433
      2 C2          0.9835    0.0107    0.0254 C.ar      1 <0>         0.0775
      3 C3          1.1115   -0.6909   -1.1663 C.ar      1 <0>        -0.1749
      4 C4          1.1280   -2.0708   -1.1401 C.ar      1 <0>         0.1543
      5 N1          1.0240   -2.7274   -0.0000 N.ar      1 <0>        -0.5077
      6 C5          0.9001   -2.0949    1.1565 C.ar      1 <0>         0.4486
      7 C6          0.8818   -0.7045    1.2047 C.ar      1 <0>        -0.2096
      8 N2          0.7930   -2.8265    2.3336 N.pl3     1 <0>        -0.6953
      9 C7          0.6556   -2.1333    3.6169 C.3       1 <0>         0.0823
     10 C8          0.5575   -3.1626    4.7446 C.3       1 <0>         0.0998
     11 C9          0.4140   -2.4387    6.0848 C.3       1 <0>         0.0459
     12 O1          0.4395   -3.3939    7.1473 O.3       1 <0>        -0.2223
     13 N3          0.3129   -2.8240    8.4374 N.2       1 <0>        -0.3448
     14 C10         0.3214   -3.5759    9.4726 C.2       1 <0>         0.2135
     15 C11         0.3363   -5.0746    9.3153 C.3       1 <0>        -0.1627
     16 C12        -0.6499   -5.6904    8.3207 C.3       1 <0>        -0.1497
     17 C13        -0.8799   -5.8506    9.8248 C.3       1 <0>        -0.1616
     18 C14         0.3165   -2.9628   10.8493 C.3       1 <0>        -0.1157
     19 C15        -0.9073   -2.1368   11.2504 C.3       1 <0>        -0.1553
     20 C16         0.4196   -1.4393   10.9444 C.3       1 <0>        -0.1599
     21 O2         -0.5821   -3.9975    4.5297 O.3       1 <0>        -0.5459
     22 H1          1.9801    1.8947    0.1326 H         1 <0>         0.1070
     23 H2          0.5292    1.8801   -0.8984 H         1 <0>         0.0962
     24 H3          0.3620    1.8677    0.8736 H         1 <0>         0.0926
     25 H4          1.1968   -0.1621   -2.1042 H         1 <0>         0.1807
     26 H5          1.2270   -2.6203   -2.0646 H         1 <0>         0.2081
     27 H6          0.7851   -0.1908    2.1498 H         1 <0>         0.1757
     28 H7          0.8093   -3.7959    2.3053 H         1 <0>         0.4246
     29 H8          1.5249   -1.4965    3.7808 H         1 <0>         0.1022
     30 H9         -0.2462   -1.5210    3.6044 H         1 <0>         0.0954
     31 H10         1.4593   -3.7749    4.7571 H         1 <0>         0.1217
     32 H11         1.2380   -1.7359    6.2083 H         1 <0>         0.0705
     33 H12        -0.5317   -1.8971    6.1058 H         1 <0>         0.0642
     34 H13         1.3131   -5.5481    9.4146 H         1 <0>         0.1230
     35 H14        -1.3095   -5.0115    7.7802 H         1 <0>         0.0939
     36 H15        -0.3220   -6.5691    7.7653 H         1 <0>         0.0984
     37 H16        -0.7034   -6.8346   10.2590 H         1 <0>         0.1033
     38 H17        -1.6909   -5.2770   10.2738 H         1 <0>         0.0986
     39 H18         0.8049   -3.5499   11.6271 H         1 <0>         0.1345
     40 H19        -1.7089   -2.0369   10.5187 H         1 <0>         0.0959
     41 H20        -1.2244   -2.1805   12.2924 H         1 <0>         0.1074
     42 H21         0.9755   -1.0240   11.7851 H         1 <0>         0.1043
     43 H22         0.4910   -0.8804   10.0114 H         1 <0>         0.1036
     44 H23        -1.4219   -3.5185    4.5068 H         1 <0>         0.3823
     45 H24         1.0385   -3.6972   -0.0097 H         1 <0>         0.4425
@<TRIPOS>BOND
     1    1    2 1
     2    1   22 1
     3    1   23 1
     4    1   24 1
     5    2    7 ar
     6    2    3 ar
     7    3    4 ar
     8    3   25 1
     9    4    5 ar
    10    4   26 1
    11    5    6 ar
    12    5   45 1
    13    6    7 ar
    14    6    8 1
    15    7   27 1
    16    8    9 1
    17    8   28 1
    18    9   10 1
    19    9   29 1
    20    9   30 1
    21   10   11 1
    22   10   21 1
    23   10   31 1
    24   11   12 1
    25   11   32 1
    26   11   33 1
    27   12   13 1
    28   13   14 2
    29   14   15 1
    30   14   18 1
    31   15   17 1
    32   15   16 1
    33   15   34 1
    34   16   17 1
    35   16   35 1
    36   16   36 1
    37   17   37 1
    38   17   38 1
    39   18   20 1
    40   18   19 1
    41   18   39 1
    42   19   20 1
    43   19   40 1
    44   19   41 1
    45   20   42 1
    46   20   43 1
    47   21   44 1
@<TRIPOS>MOLECULE
CHEMBL1221804
   49    51     0     0     0
SMALL
USER_CHARGES

@<TRIPOS>ATOM
      1 C1         -0.0178    1.4608    0.0101 C.3       1 <0>         0.0901
      2 N1          0.0021   -0.0041    0.0020 N.pl3     1 <0>        -0.6342
      3 C2          0.0241   -0.7433    1.2666 C.3       1 <0>         0.1299
      4 C3         -1.4105   -1.0203    1.7205 C.3       1 <0>        -0.1738
      5 C4         -1.3875   -1.7923    3.0413 C.3       1 <0>        -0.0075
      6 N2         -2.7649   -2.0583    3.4771 N.4       1 <0>        -0.5046
      7 C5         -2.7428   -2.7995    4.7452 C.3       1 <0>        -0.0452
      8 C6         -4.1774   -3.0765    5.1991 C.3       1 <0>         0.1622
      9 H1         -4.6904   -3.6684    4.4411 H         1 <0>         0.1155
     10 C7         -4.1547   -3.8369    6.5000 C.ar      1 <0>        -0.2347
     11 C8         -4.2627   -3.1602    7.7027 C.ar      1 <0>        -0.0378
     12 C9         -4.2400   -3.8789    8.8852 C.ar      1 <0>        -0.2398
     13 C10        -4.1122   -5.2520    8.8843 C.ar      1 <0>         0.3004
     14 C11        -4.0006   -5.9651    7.6746 C.ar      1 <0>        -0.0290
     15 C12        -4.0325   -5.2060    6.4972 C.ar      1 <0>        -0.0475
     16 S1         -3.8789   -6.4320    5.2207 S.3       1 <0>        -0.1197
     17 C13        -3.7876   -7.8714    6.2731 C.2       1 <0>         0.5381
     18 O1         -3.6726   -9.0411    5.9564 O.2       1 <0>        -0.4753
     19 N3         -3.8664   -7.3351    7.5069 N.am      1 <0>        -0.6198
     20 H2         -3.8412   -7.9140    8.2848 H         1 <0>         0.4156
     21 O2         -4.0931   -5.9256   10.0653 O.3       1 <0>        -0.6858
     22 O3         -4.8663   -1.8381    5.3832 O.3       1 <0>        -0.5548
     23 C14        -0.0000   -0.6959   -1.2114 C.ar      1 <0>         0.2048
     24 C15         0.0130   -2.0849   -1.2208 C.ar      1 <0>        -0.1987
     25 C16         0.0104   -2.7658   -2.4223 C.ar      1 <0>        -0.0731
     26 C17        -0.0046   -2.0664   -3.6151 C.ar      1 <0>        -0.1707
     27 C18        -0.0176   -0.6836   -3.6094 C.ar      1 <0>        -0.0711
     28 C19        -0.0209    0.0035   -2.4114 C.ar      1 <0>        -0.1923
     29 H3          1.0048    1.8381    0.0023 H         1 <0>         0.0526
     30 H4         -0.5450    1.8219   -0.8730 H         1 <0>         0.0721
     31 H5         -0.5280    1.8123    0.9069 H         1 <0>         0.0659
     32 H6          0.5496   -1.6879    1.1262 H         1 <0>         0.0862
     33 H7          0.5371   -0.1514    2.0246 H         1 <0>         0.0844
     34 H8         -1.9359   -0.0757    1.8610 H         1 <0>         0.0883
     35 H9         -1.9235   -1.6122    0.9626 H         1 <0>         0.0908
     36 H10        -0.8620   -2.7369    2.9008 H         1 <0>         0.1323
     37 H11        -0.8745   -1.2004    3.7993 H         1 <0>         0.1316
     38 H12        -3.2513   -1.1838    3.6071 H         1 <0>         0.4284
     39 H13        -2.2174   -3.7441    4.6047 H         1 <0>         0.1409
     40 H14        -2.2298   -2.2076    5.5031 H         1 <0>         0.1362
     41 H15        -4.3630   -2.0850    7.7180 H         1 <0>         0.1129
     42 H16        -4.3236   -3.3548    9.8258 H         1 <0>         0.1174
     43 H17        -4.4643   -1.2591    6.0452 H         1 <0>         0.3835
     44 H18         0.0255   -2.6317   -0.2895 H         1 <0>         0.1183
     45 H19         0.0205   -3.8457   -2.4303 H         1 <0>         0.1227
     46 H20        -0.0059   -2.6013   -4.5533 H         1 <0>         0.1209
     47 H21        -0.0293   -0.1404   -4.5428 H         1 <0>         0.1233
     48 H22        -0.0356    1.0834   -2.4076 H         1 <0>         0.1229
     49 H23        -3.2398   -2.6062    2.7754 H         1 <0>         0.4271
@<TRIPOS>BOND
     1    1    2 1
     2    1   29 1
     3    1   30 1
     4    1   31 1
     5    2    3 1
     6    2   23 1
     7    3    4 1
     8    3   32 1
     9    3   33 1
    10    4    5 1
    11    4   34 1
    12    4   35 1
    13    5    6 1
    14    5   36 1
    15    5   37 1
    16    6    7 1
    17    6   38 1
    18    6   49 1
    19    7    8 1
    20    7   39 1
    21    7   40 1
    22    8    9 1
    23    8   10 1
    24    8   22 1
    25   10   15 ar
    26   10   11 ar
    27   11   12 ar
    28   11   41 1
    29   12   13 ar
    30   12   42 1
    31   13   14 ar
    32   13   21 1
    33   14   19 1
    34   14   15 ar
    35   15   16 1
    36   16   17 1
    37   17   18 2
    38   17   19 am
    39   19   20 1
    40   22   43 1
    41   23   28 ar
    42   23   24 ar
    43   24   25 ar
    44   24   44 1
    45   25   26 ar
    46   25   45 1
    47   26   27 ar
    48   26   46 1
    49   27   28 ar
    50   27   47 1
    51   28   48 1
@<TRIPOS>MOLECULE
CHEMBL43111
   42    44     0     0     0
SMALL
USER_CHARGES

@<TRIPOS>ATOM
      1 C1         -0.1461    1.3520   -0.9727 C.ar      1 <0>        -0.2044
      2 C2          1.0397    2.0442   -1.1003 C.ar      1 <0>         0.1653
      3 N1          2.1965    1.4086   -1.1110 N.ar      1 <0>        -0.4947
      4 C3          2.2722    0.0954   -1.0014 C.ar      1 <0>         0.1697
      5 C4          1.1326   -0.6699   -0.8701 C.ar      1 <0>        -0.2136
      6 C5         -0.1104   -0.0373   -0.8542 C.ar      1 <0>         0.3157
      7 N2         -1.2843   -0.7731   -0.7231 N.pl3     1 <0>        -0.6757
      8 C6         -1.2247   -2.2317   -0.5999 C.3       1 <0>         0.0697
      9 C7         -2.6429   -2.7909   -0.4701 C.3       1 <0>         0.0997
     10 C8         -2.5755   -4.2983   -0.2168 C.3       1 <0>         0.0456
     11 O1         -3.8921   -4.8008    0.0201 O.3       1 <0>        -0.2215
     12 N3         -3.9410   -6.1943    0.2669 N.2       1 <0>        -0.3452
     13 C9         -5.0636   -6.7649    0.4935 C.2       1 <0>         0.2126
     14 C10        -6.3163   -5.9377    0.6254 C.3       1 <0>        -0.1603
     15 C11        -6.2534   -4.6983    1.5204 C.3       1 <0>        -0.1532
     16 C12        -7.0230   -5.9373    1.9825 C.3       1 <0>        -0.1609
     17 C13        -5.1331   -8.2643    0.6283 C.3       1 <0>        -0.1152
     18 C14        -4.3795   -8.9042    1.7960 C.3       1 <0>        -0.1556
     19 C15        -3.8506   -9.0571    0.3686 C.3       1 <0>        -0.1600
     20 O2         -3.3652   -2.5427   -1.6779 O.3       1 <0>        -0.5450
     21 H1         -1.0889    1.8785   -0.9602 H         1 <0>         0.1782
     22 H2          1.0216    3.1200   -1.1930 H         1 <0>         0.2053
     23 H3          3.2389   -0.3859   -1.0150 H         1 <0>         0.2048
     24 H4          1.2016   -1.7440   -0.7808 H         1 <0>         0.1755
     25 H5         -2.1420   -0.3202   -0.7132 H         1 <0>         0.4271
     26 H6         -0.7481   -2.6519   -1.4856 H         1 <0>         0.0928
     27 H7         -0.6466   -2.4983    0.2849 H         1 <0>         0.0983
     28 H8         -3.1503   -2.3048    0.3631 H         1 <0>         0.1200
     29 H9         -2.1486   -4.7945   -1.0883 H         1 <0>         0.0647
     30 H10        -1.9502   -4.4927    0.6546 H         1 <0>         0.0677
     31 H11        -6.9400   -5.8834   -0.2668 H         1 <0>         0.1240
     32 H12        -5.3060   -4.4813    2.0137 H         1 <0>         0.0915
     33 H13        -6.8358   -3.8283    1.2169 H         1 <0>         0.0993
     34 H14        -8.1116   -5.8825    1.9830 H         1 <0>         0.1037
     35 H15        -6.5818   -6.5355    2.7798 H         1 <0>         0.0987
     36 H16        -6.0763   -8.7202    0.3273 H         1 <0>         0.1345
     37 H17        -3.8336   -8.2408    2.4667 H         1 <0>         0.0957
     38 H18        -4.8270   -9.7813    2.2636 H         1 <0>         0.1072
     39 H19        -3.9500  -10.0348   -0.1030 H         1 <0>         0.1043
     40 H20        -2.9566   -8.4943    0.1001 H         1 <0>         0.1035
     41 H21        -2.9700   -2.9465   -2.4626 H         1 <0>         0.3822
     42 H22         3.0148    1.9215   -1.2024 H         1 <0>         0.4481
@<TRIPOS>BOND
     1    1    6 ar
     2    1    2 ar
     3    1   21 1
     4    2    3 ar
     5    2   22 1
     6    3    4 ar
     7    3   42 1
     8    4    5 ar
     9    4   23 1
    10    5    6 ar
    11    5   24 1
    12    6    7 1
    13    7    8 1
    14    7   25 1
    15    8    9 1
    16    8   26 1
    17    8   27 1
    18    9   10 1
    19    9   20 1
    20    9   28 1
    21   10   11 1
    22   10   29 1
    23   10   30 1
    24   11   12 1
    25   12   13 2
    26   13   14 1
    27   13   17 1
    28   14   16 1
    29   14   15 1
    30   14   31 1
    31   15   16 1
    32   15   32 1
    33   15   33 1
    34   16   34 1
    35   16   35 1
    36   17   19 1
    37   17   18 1
    38   17   36 1
    39   18   19 1
    40   18   37 1
    41   18   38 1
    42   19   39 1
    43   19   40 1
    44   20   41 1
@<TRIPOS>MOLECULE
CHEMBL43111__1
   42    44     0     0     0
SMALL
USER_CHARGES

@<TRIPOS>ATOM
      1 C1         -0.0382    1.3704   -0.9822 C.ar      1 <0>        -0.2045
      2 C2          1.1539    2.0517   -1.1089 C.ar      1 <0>         0.1653
      3 N1          2.3050    1.4057   -1.1172 N.ar      1 <0>        -0.4948
      4 C3          2.3686    0.0920   -1.0057 C.ar      1 <0>         0.1696
      5 C4          1.2220   -0.6627   -0.8751 C.ar      1 <0>        -0.2137
      6 C5         -0.0152   -0.0189   -0.8618 C.ar      1 <0>         0.3158
      7 N2         -1.1959   -0.7439   -0.7314 N.pl3     1 <0>        -0.6753
      8 C6         -1.1497   -2.2029   -0.6062 C.3       1 <0>         0.0695
      9 C7         -2.5731   -2.7491   -0.4777 C.3       1 <0>         0.0995
     10 C8         -2.5248   -4.2727   -0.3470 C.3       1 <0>         0.0458
     11 O1         -3.8557   -4.7930   -0.3441 O.3       1 <0>        -0.2216
     12 N3         -3.9228   -6.2025   -0.2266 N.2       1 <0>        -0.3454
     13 C9         -5.0595   -6.7899   -0.2120 C.2       1 <0>         0.2127
     14 C10        -6.3278   -5.9763   -0.1897 C.3       1 <0>        -0.1626
     15 C11        -6.4072   -4.8188    0.8076 C.3       1 <0>        -0.1493
     16 C12        -7.2201   -6.0925    1.0477 C.3       1 <0>        -0.1618
     17 C13        -5.1299   -8.2952   -0.2170 C.3       1 <0>        -0.1152
     18 C14        -4.5425   -9.0339    0.9872 C.3       1 <0>        -0.1555
     19 C15        -3.8143   -9.0635   -0.3581 C.3       1 <0>        -0.1601
     20 O2         -3.1946   -2.1910    0.6818 O.3       1 <0>        -0.5451
     21 H1         -0.9763    1.9055   -0.9717 H         1 <0>         0.1782
     22 H2          1.1457    3.1276   -1.2030 H         1 <0>         0.2053
     23 H3          3.3310   -0.3980   -1.0174 H         1 <0>         0.2047
     24 H4          1.2811   -1.7373   -0.7843 H         1 <0>         0.1755
     25 H5         -2.0495   -0.2833   -0.7233 H         1 <0>         0.4276
     26 H6         -0.6756   -2.6285   -1.4906 H         1 <0>         0.0988
     27 H7         -0.5753   -2.4735    0.2797 H         1 <0>         0.0920
     28 H8         -3.1475   -2.4784   -1.3637 H         1 <0>         0.1210
     29 H9         -1.9725   -4.6922   -1.1880 H         1 <0>         0.0692
     30 H10        -2.0274   -4.5419    0.5848 H         1 <0>         0.0630
     31 H11        -6.8191   -5.8449   -1.1539 H         1 <0>         0.1230
     32 H12        -5.5420   -4.6457    1.4477 H         1 <0>         0.0940
     33 H13        -6.9506   -3.9255    0.4997 H         1 <0>         0.0987
     34 H14        -8.2983   -6.0373    0.8977 H         1 <0>         0.1032
     35 H15        -6.8897   -6.7575    1.8457 H         1 <0>         0.0983
     36 H16        -6.0154   -8.7229   -0.6872 H         1 <0>         0.1344
     37 H17        -4.1051   -8.4311    1.7831 H         1 <0>         0.0958
     38 H18        -5.0416   -9.9477    1.3096 H         1 <0>         0.1072
     39 H19        -3.8344   -9.9968   -0.9208 H         1 <0>         0.1042
     40 H20        -2.8979   -8.4802   -0.4473 H         1 <0>         0.1035
     41 H21        -2.7360   -2.3920    1.5090 H         1 <0>         0.3813
     42 H22         3.1280    1.9111   -1.2081 H         1 <0>         0.4480
@<TRIPOS>BOND
     1    1    6 ar
     2    1    2 ar
     3    1   21 1
     4    2    3 ar
     5    2   22 1
     6    3    4 ar
     7    3   42 1
     8    4    5 ar
     9    4   23 1
    10    5    6 ar
    11    5   24 1
    12    6    7 1
    13    7    8 1
    14    7   25 1
    15    8    9 1
    16    8   26 1
    17    8   27 1
    18    9   10 1
    19    9   20 1
    20    9   28 1
    21   10   11 1
    22   10   29 1
    23   10   30 1
    24   11   12 1
    25   12   13 2
    26   13   14 1
    27   13   17 1
    28   14   16 1
    29   14   15 1
    30   14   31 1
    31   15   16 1
    32   15   32 1
    33   15   33 1
    34   16   34 1
    35   16   35 1
    36   17   19 1
    37   17   18 1
    38   17   36 1
    39   18   19 1
    40   18   37 1
    41   18   38 1
    42   19   39 1
    43   19   40 1
    44   20   41 1
@<TRIPOS>MOLECULE
CHEMBL127422
   61    64     0     0     0
SMALL
USER_CHARGES

@<TRIPOS>ATOM
      1 C1          1.5083    1.5528    4.0028 C.ar      1 <0>        -0.1173
      2 C2          0.6856    0.5473    3.4985 C.ar      1 <0>        -0.1063
      3 C3          1.2104   -0.6193    3.0342 C.ar      1 <0>        -0.1141
      4 C4          2.6029   -0.8161    3.0622 C.ar      1 <0>        -0.0349
      5 C5          3.1765   -2.0065    2.5909 C.ar      1 <0>        -0.1397
      6 C6          4.5523   -2.1634    2.6345 C.ar      1 <0>         0.1115
      7 C7          5.3716   -1.1407    3.1467 C.ar      1 <0>        -0.1264
      8 C8          4.8335    0.0172    3.6067 C.ar      1 <0>        -0.0828
      9 C9          3.4397    0.2072    3.5755 C.ar      1 <0>        -0.0620
     10 C10         2.8602    1.3974    4.0456 C.ar      1 <0>        -0.1012
     11 N1          5.1186   -3.3222    2.1763 N.2       1 <0>        -0.5682
     12 C11         5.3887   -3.4604    0.8995 C.2       1 <0>         0.6471
     13 N2          5.0127   -2.4819    0.0063 N.pl3     1 <0>        -0.6176
     14 C12         5.3829   -2.5731   -1.2940 C.1       1 <0>         0.3881
     15 N3          5.6932   -2.6495   -2.3841 N.1       1 <0>        -0.3763
     16 N4          6.0465   -4.5810    0.4540 N.pl3     1 <0>        -0.6534
     17 C13         6.3243   -5.6270    1.3395 C.ar      1 <0>         0.1880
     18 C14         5.4744   -5.8777    2.4091 C.ar      1 <0>        -0.1096
     19 C15         5.7517   -6.9115    3.2818 C.ar      1 <0>        -0.0857
     20 C16         6.8743   -7.6964    3.0920 C.ar      1 <0>        -0.1290
     21 C17         7.7227   -7.4492    2.0284 C.ar      1 <0>        -0.0844
     22 C18         7.4477   -6.4211    1.1481 C.ar      1 <0>        -0.1457
     23 C19         7.1739   -8.8233    4.0466 C.3       1 <0>        -0.0970
     24 C20         6.5061  -10.1060    3.5471 C.3       1 <0>        -0.0075
     25 N5          6.7982  -11.2046    4.4776 N.4       1 <0>        -0.5057
     26 C21         6.1569  -12.4361    3.9980 C.3       1 <0>        -0.0424
     27 C22         6.4612  -13.5803    4.9672 C.3       1 <0>         0.1414
     28 H1          6.0757  -13.3312    5.9559 H         1 <0>         0.1339
     29 C23         5.8034  -14.8437    4.4752 C.ar      1 <0>        -0.2003
     30 C24         4.5530  -15.2138    4.9469 C.ar      1 <0>        -0.0549
     31 C25         3.9864  -16.3842    4.4663 C.ar      1 <0>        -0.1642
     32 C26         4.6817  -17.1380    3.5395 C.ar      1 <0>         0.1223
     33 N6          5.8694  -16.7554    3.1135 N.ar      1 <0>        -0.4750
     34 C27         6.4361  -15.6451    3.5441 C.ar      1 <0>         0.1171
     35 O1          7.8745  -13.7774    5.0428 O.3       1 <0>        -0.5460
     36 H2          1.0671    2.4711    4.3611 H         1 <0>         0.1257
     37 H3         -0.3839    0.6959    3.4763 H         1 <0>         0.1253
     38 H4          0.5610   -1.3903    2.6464 H         1 <0>         0.1265
     39 H5          2.5508   -2.7941    2.1977 H         1 <0>         0.1273
     40 H6          6.4424   -1.2790    3.1744 H         1 <0>         0.1247
     41 H7          5.4754    0.7929    3.9973 H         1 <0>         0.1316
     42 H8          3.4845    2.1860    4.4390 H         1 <0>         0.1289
     43 H9          4.4828   -1.7275    0.3080 H         1 <0>         0.4477
     44 H10         6.3183   -4.6467   -0.4748 H         1 <0>         0.4214
     45 H11         4.5979   -5.2646    2.5584 H         1 <0>         0.1530
     46 H12         5.0912   -7.1070    4.1137 H         1 <0>         0.1271
     47 H13         8.5988   -8.0638    1.8831 H         1 <0>         0.1282
     48 H14         8.1081   -6.2316    0.3149 H         1 <0>         0.1308
     49 H15         8.2520   -8.9737    4.1042 H         1 <0>         0.0954
     50 H16         6.7885   -8.5742    5.0352 H         1 <0>         0.0957
     51 H17         5.4280   -9.9557    3.4894 H         1 <0>         0.1335
     52 H18         6.8916  -10.3551    2.5584 H         1 <0>         0.1330
     53 H19         7.7961  -11.3438    4.5310 H         1 <0>         0.4324
     54 H20         5.0789  -12.2858    3.9404 H         1 <0>         0.1445
     55 H21         6.5424  -12.6852    3.0094 H         1 <0>         0.1374
     56 H22         4.0331  -14.6049    5.6717 H         1 <0>         0.1412
     57 H23         3.0141  -16.7031    4.8119 H         1 <0>         0.1472
     58 H24         4.2472  -18.0511    3.1602 H         1 <0>         0.1671
     59 H25         7.4080  -15.3613    3.1682 H         1 <0>         0.1530
     60 H26         8.2860  -14.0027    4.1972 H         1 <0>         0.3899
     61 H27         6.4414  -10.9740    5.3928 H         1 <0>         0.4297
@<TRIPOS>BOND
     1    1   10 ar
     2    1    2 ar
     3    1   36 1
     4    2    3 ar
     5    2   37 1
     6    3    4 ar
     7    3   38 1
     8    4    9 ar
     9    4    5 ar
    10    5    6 ar
    11    5   39 1
    12    6    7 ar
    13    6   11 1
    14    7    8 ar
    15    7   40 1
    16    8    9 ar
    17    8   41 1
    18    9   10 ar
    19   10   42 1
    20   11   12 2
    21   12   13 1
    22   12   16 1
    23   13   14 1
    24   13   43 1
    25   14   15 3
    26   16   17 1
    27   16   44 1
    28   17   22 ar
    29   17   18 ar
    30   18   19 ar
    31   18   45 1
    32   19   20 ar
    33   19   46 1
    34   20   21 ar
    35   20   23 1
    36   21   22 ar
    37   21   47 1
    38   22   48 1
    39   23   24 1
    40   23   49 1
    41   23   50 1
    42   24   25 1
    43   24   51 1
    44   24   52 1
    45   25   26 1
    46   25   53 1
    47   25   61 1
    48   26   27 1
    49   26   54 1
    50   26   55 1
    51   27   28 1
    52   27   29 1
    53   27   35 1
    54   29   34 ar
    55   29   30 ar
    56   30   31 ar
    57   30   56 1
    58   31   32 ar
    59   31   57 1
    60   32   33 ar
    61   32   58 1
    62   33   34 ar
    63   34   59 1
    64   35   60 1
@<TRIPOS>MOLECULE
CHEMBL1085837
   72    74     0     0     0
SMALL
USER_CHARGES

@<TRIPOS>ATOM
      1 C1         -0.0164    1.3567    0.0095 C.ar      1 <0>        -0.1176
      2 C2          1.1685    2.0906    0.0021 C.ar      1 <0>        -0.1096
      3 C3          2.3785    1.4679   -0.0132 C.ar      1 <0>        -0.1154
      4 C4          2.4378    0.0637   -0.0214 C.ar      1 <0>        -0.0429
      5 C5          1.2328   -0.6827   -0.0134 C.ar      1 <0>        -0.0524
      6 C6          0.0021   -0.0041    0.0020 C.ar      1 <0>        -0.1024
      7 C7          1.2920   -2.0865   -0.0210 C.ar      1 <0>        -0.1046
      8 C8          2.5022   -2.7094   -0.0359 C.ar      1 <0>        -0.1180
      9 C9          3.6867   -1.9757   -0.0433 C.ar      1 <0>        -0.0913
     10 C10         3.6681   -0.6146   -0.0367 C.ar      1 <0>        -0.0826
     11 C11         4.9603    0.1606   -0.0459 C.3       1 <0>         0.1047
     12 O1          6.0618   -0.7496   -0.0611 O.3       1 <0>        -0.3767
     13 C12         7.3414   -0.1136   -0.0708 C.3       1 <0>         0.0632
     14 C13         8.4401   -1.1783   -0.0867 C.3       1 <0>         0.0655
     15 O2          8.3738   -1.9129   -1.3106 O.3       1 <0>        -0.3804
     16 C14         9.3625   -2.9380   -1.4275 C.3       1 <0>         0.0603
     17 C15         9.1978   -3.6549   -2.7691 C.3       1 <0>        -0.1200
     18 C16        10.2564   -4.7524   -2.8943 C.3       1 <0>        -0.1181
     19 C17        10.0916   -5.4693   -4.2359 C.3       1 <0>        -0.1169
     20 C18        11.1503   -6.5668   -4.3610 C.3       1 <0>        -0.1500
     21 C19        10.9855   -7.2837   -5.7026 C.3       1 <0>        -0.0106
     22 N1         12.0019   -8.3374   -5.8228 N.4       1 <0>        -0.5057
     23 C20        11.8437   -9.0257   -7.1109 C.3       1 <0>        -0.0427
     24 C21        12.9024  -10.1233   -7.2360 C.3       1 <0>         0.1378
     25 H1         12.7806  -10.8399   -6.4238 H         1 <0>         0.1326
     26 C22        12.7401  -10.8294   -8.5574 C.ar      1 <0>        -0.1555
     27 C23        13.3377  -10.3144   -9.6932 C.ar      1 <0>        -0.0897
     28 C24        13.1901  -10.9594  -10.9056 C.ar      1 <0>        -0.1374
     29 C25        12.4418  -12.1253  -10.9832 C.ar      1 <0>         0.1335
     30 C26        11.8438  -12.6401   -9.8425 C.ar      1 <0>        -0.1102
     31 C27        11.9988  -11.9939   -8.6311 C.ar      1 <0>        -0.0622
     32 C28        11.0304  -13.9062   -9.9232 C.3       1 <0>         0.1174
     33 O3         10.5227  -14.2296   -8.6272 O.3       1 <0>        -0.5756
     34 O4         12.2948  -12.7616  -12.1751 O.3       1 <0>        -0.4942
     35 O5         14.2046   -9.5393   -7.1648 O.3       1 <0>        -0.5481
     36 H2         -0.9634    1.8756    0.0259 H         1 <0>         0.1252
     37 H3          1.1258    3.1698    0.0084 H         1 <0>         0.1247
     38 H4          3.2883    2.0497   -0.0195 H         1 <0>         0.1248
     39 H5         -0.9241   -0.5595    0.0082 H         1 <0>         0.1287
     40 H6          0.3820   -2.6682   -0.0147 H         1 <0>         0.1279
     41 H7          2.5450   -3.7886   -0.0417 H         1 <0>         0.1234
     42 H8          4.6338   -2.4947   -0.0548 H         1 <0>         0.1326
     43 H9          4.9988    0.7923   -0.9334 H         1 <0>         0.0653
     44 H10         5.0164    0.7840    0.8465 H         1 <0>         0.0652
     45 H11         7.4292    0.5125   -0.9588 H         1 <0>         0.0603
     46 H12         7.4469    0.5041    0.8211 H         1 <0>         0.0686
     47 H13         9.4143   -0.6963   -0.0046 H         1 <0>         0.0663
     48 H14         8.2991   -1.8584    0.7533 H         1 <0>         0.0598
     49 H15        10.3559   -2.4925   -1.3732 H         1 <0>         0.0476
     50 H16         9.2407   -3.6546   -0.6153 H         1 <0>         0.0490
     51 H17         8.2044   -4.1003   -2.8235 H         1 <0>         0.0740
     52 H18         9.3196   -2.9382   -3.5814 H         1 <0>         0.0725
     53 H19        11.2497   -4.3069   -2.8399 H         1 <0>         0.0684
     54 H20        10.1346   -5.4690   -2.0820 H         1 <0>         0.0689
     55 H21         9.0983   -5.9147   -4.2902 H         1 <0>         0.0762
     56 H22        10.2134   -4.7527   -5.0481 H         1 <0>         0.0756
     57 H23        12.1436   -6.1214   -4.3067 H         1 <0>         0.0882
     58 H24        11.0285   -7.2834   -3.5488 H         1 <0>         0.0886
     59 H25         9.9922   -7.7291   -5.7570 H         1 <0>         0.1326
     60 H26        11.1073   -6.5671   -6.5148 H         1 <0>         0.1315
     61 H27        12.9215   -7.9251   -5.7724 H         1 <0>         0.4314
     62 H28        10.8504   -9.4712   -7.1652 H         1 <0>         0.1450
     63 H29        11.9655   -8.3091   -7.9231 H         1 <0>         0.1366
     64 H30        13.9200   -9.4069   -9.6322 H         1 <0>         0.1275
     65 H31        13.6564  -10.5565  -11.7925 H         1 <0>         0.1403
     66 H32        11.5367  -12.3965   -7.7418 H         1 <0>         0.1419
     67 H33        10.1991  -13.7606  -10.6131 H         1 <0>         0.0706
     68 H34        11.6605  -14.7207  -10.2803 H         1 <0>         0.0653
     69 H35         9.9881  -15.0351   -8.6039 H         1 <0>         0.3932
     70 H36        12.9776  -13.4223  -12.3551 H         1 <0>         0.4011
     71 H37        14.3832   -8.8902   -7.8589 H         1 <0>         0.3878
     72 H38        11.8892   -9.0008   -5.0709 H         1 <0>         0.4294
@<TRIPOS>BOND
     1    1    6 ar
     2    1    2 ar
     3    1   36 1
     4    2    3 ar
     5    2   37 1
     6    3    4 ar
     7    3   38 1
     8    4   10 ar
     9    4    5 ar
    10    5    6 ar
    11    5    7 ar
    12    6   39 1
    13    7    8 ar
    14    7   40 1
    15    8    9 ar
    16    8   41 1
    17    9   10 ar
    18    9   42 1
    19   10   11 1
    20   11   12 1
    21   11   43 1
    22   11   44 1
    23   12   13 1
    24   13   14 1
    25   13   45 1
    26   13   46 1
    27   14   15 1
    28   14   47 1
    29   14   48 1
    30   15   16 1
    31   16   17 1
    32   16   49 1
    33   16   50 1
    34   17   18 1
    35   17   51 1
    36   17   52 1
    37   18   19 1
    38   18   53 1
    39   18   54 1
    40   19   20 1
    41   19   55 1
    42   19   56 1
    43   20   21 1
    44   20   57 1
    45   20   58 1
    46   21   22 1
    47   21   59 1
    48   21   60 1
    49   22   23 1
    50   22   61 1
    51   22   72 1
    52   23   24 1
    53   23   62 1
    54   23   63 1
    55   24   25 1
    56   24   26 1
    57   24   35 1
    58   26   31 ar
    59   26   27 ar
    60   27   28 ar
    61   27   64 1
    62   28   29 ar
    63   28   65 1
    64   29   30 ar
    65   29   34 1
    66   30   31 ar
    67   30   32 1
    68   31   66 1
    69   32   33 1
    70   32   67 1
    71   32   68 1
    72   33   69 1
    73   34   70 1
    74   35   71 1
@<TRIPOS>MOLECULE
CHEMBL561291
   66    69     0     0     0
SMALL
USER_CHARGES

@<TRIPOS>ATOM
      1 C1          7.7548   -9.4253   -4.3889 C.ar      1 <0>        -0.1136
      2 C2          6.5106   -9.5671   -3.7769 C.ar      1 <0>        -0.1139
      3 C3          6.0147   -8.5947   -2.9640 C.ar      1 <0>        -0.1079
      4 C4          6.7660   -7.4292   -2.7357 C.ar      1 <0>        -0.0502
      5 C5          6.2874   -6.4038   -1.9022 C.ar      1 <0>        -0.0881
      6 C6          7.0429   -5.2894   -1.7040 C.ar      1 <0>        -0.0717
      7 C7          8.2872   -5.1478   -2.3158 C.ar      1 <0>        -0.1040
      8 C8          8.7828   -6.1199   -3.1291 C.ar      1 <0>        -0.1006
      9 C9          8.0313   -7.2852   -3.3577 C.ar      1 <0>        -0.0491
     10 C10         8.5100   -8.3106   -4.1911 C.ar      1 <0>        -0.1067
     11 C11         6.5262   -4.1917   -0.8101 C.3       1 <0>        -0.1012
     12 C12         6.9738   -4.4449    0.6065 C.2       1 <0>         0.5176
     13 O1          7.6462   -5.4207    0.8647 O.2       1 <0>        -0.5044
     14 N1          6.6269   -3.5871    1.5864 N.am      1 <0>        -0.6806
     15 C13         6.9593   -3.8717    2.9154 C.ar      1 <0>         0.1668
     16 C14         6.0946   -3.5129    3.9411 C.ar      1 <0>        -0.1433
     17 C15         6.4256   -3.7951    5.2519 C.ar      1 <0>        -0.0876
     18 C16         7.6166   -4.4344    5.5436 C.ar      1 <0>        -0.1284
     19 C17         8.4800   -4.7926    4.5245 C.ar      1 <0>        -0.0878
     20 C18         8.1520   -4.5187    3.2112 C.ar      1 <0>        -0.1187
     21 C19         7.9747   -4.7408    6.9750 C.3       1 <0>        -0.0969
     22 C20         7.4364   -6.1228    7.3507 C.3       1 <0>        -0.0076
     23 N2          7.7854   -6.4216    8.7460 N.4       1 <0>        -0.5036
     24 C21         7.2686   -7.7485    9.1067 C.3       1 <0>        -0.0419
     25 C22         7.6320   -8.0596   10.5600 C.3       1 <0>         0.0859
     26 H1          7.1905   -7.3076   11.2139 H         1 <0>         0.1363
     27 C23         7.0938   -9.4416   10.9356 C.3       1 <0>         0.0288
     28 O2          7.3307   -9.6839   12.3239 O.3       1 <0>        -0.3011
     29 C24         6.9099  -10.8767   12.8230 C.ar      1 <0>         0.1088
     30 C25         6.2875  -11.7958   11.9913 C.ar      1 <0>        -0.1914
     31 C26         5.8600  -13.0075   12.4984 C.ar      1 <0>        -0.1061
     32 C27         6.0537  -13.3053   13.8391 C.ar      1 <0>         0.0804
     33 C28         6.6769  -12.3867   14.6706 C.ar      1 <0>        -0.1027
     34 C29         7.1082  -11.1767   14.1626 C.ar      1 <0>        -0.1260
     35 O3          5.6321  -14.4978   14.3384 O.3       1 <0>        -0.4957
     36 O4          9.0532   -8.0453   10.7091 O.3       1 <0>        -0.5435
     37 H2          8.1270  -10.2138   -5.0262 H         1 <0>         0.1254
     38 H3          5.9312  -10.4618   -3.9507 H         1 <0>         0.1248
     39 H4          5.0487   -8.7180   -2.4970 H         1 <0>         0.1262
     40 H5          5.3249   -6.4996   -1.4218 H         1 <0>         0.1237
     41 H6          8.8666   -4.2530   -2.1421 H         1 <0>         0.1213
     42 H7          9.7484   -5.9963   -3.5967 H         1 <0>         0.1294
     43 H8          9.4724   -8.2146   -4.6717 H         1 <0>         0.1286
     44 H9          6.9178   -3.2326   -1.1489 H         1 <0>         0.1112
     45 H10         5.4370   -4.1737   -0.8492 H         1 <0>         0.1102
     46 H11         6.1467   -2.7724    1.3703 H         1 <0>         0.4164
     47 H12         5.1644   -3.0133    3.7141 H         1 <0>         0.1325
     48 H13         5.7537   -3.5160    6.0501 H         1 <0>         0.1285
     49 H14         9.4097   -5.2914    4.7556 H         1 <0>         0.1274
     50 H15         8.8244   -4.8033    2.4154 H         1 <0>         0.1451
     51 H16         9.0587   -4.7299    7.0887 H         1 <0>         0.0962
     52 H17         7.5331   -3.9888    7.6289 H         1 <0>         0.0962
     53 H18         6.3524   -6.1338    7.2369 H         1 <0>         0.1343
     54 H19         7.8779   -6.8748    6.6967 H         1 <0>         0.1339
     55 H20         8.7888   -6.4114    8.8513 H         1 <0>         0.4335
     56 H21         6.1846   -7.7594    8.9930 H         1 <0>         0.1471
     57 H22         7.7101   -8.5005    8.4527 H         1 <0>         0.1399
     58 H23         6.0226   -9.4805   10.7377 H         1 <0>         0.0820
     59 H24         7.6007  -10.2026   10.3423 H         1 <0>         0.0769
     60 H25         6.1367  -11.5638   10.9474 H         1 <0>         0.1284
     61 H26         5.3747  -13.7228   11.8509 H         1 <0>         0.1352
     62 H27         6.8274  -12.6185   15.7146 H         1 <0>         0.1418
     63 H28         7.5969  -10.4629   14.8092 H         1 <0>         0.1388
     64 H29         6.2944  -15.2007   14.2900 H         1 <0>         0.3940
     65 H30         9.5133   -8.6909   10.1554 H         1 <0>         0.3902
     66 H31         7.3766   -5.7255    9.3513 H         1 <0>         0.4308
@<TRIPOS>BOND
     1    1   10 ar
     2    1    2 ar
     3    1   37 1
     4    2    3 ar
     5    2   38 1
     6    3    4 ar
     7    3   39 1
     8    4    9 ar
     9    4    5 ar
    10    5    6 ar
    11    5   40 1
    12    6    7 ar
    13    6   11 1
    14    7    8 ar
    15    7   41 1
    16    8    9 ar
    17    8   42 1
    18    9   10 ar
    19   10   43 1
    20   11   12 1
    21   11   44 1
    22   11   45 1
    23   12   13 2
    24   12   14 am
    25   14   15 1
    26   14   46 1
    27   15   20 ar
    28   15   16 ar
    29   16   17 ar
    30   16   47 1
    31   17   18 ar
    32   17   48 1
    33   18   19 ar
    34   18   21 1
    35   19   20 ar
    36   19   49 1
    37   20   50 1
    38   21   22 1
    39   21   51 1
    40   21   52 1
    41   22   23 1
    42   22   53 1
    43   22   54 1
    44   23   24 1
    45   23   55 1
    46   23   66 1
    47   24   25 1
    48   24   56 1
    49   24   57 1
    50   25   26 1
    51   25   27 1
    52   25   36 1
    53   27   28 1
    54   27   58 1
    55   27   59 1
    56   28   29 1
    57   29   34 ar
    58   29   30 ar
    59   30   31 ar
    60   30   60 1
    61   31   32 ar
    62   31   61 1
    63   32   33 ar
    64   32   35 1
    65   33   34 ar
    66   33   62 1
    67   34   63 1
    68   35   64 1
    69   36   65 1
@<TRIPOS>MOLECULE
CHEMBL551389
   58    60     0     0     0
SMALL
USER_CHARGES

@<TRIPOS>ATOM
      1 C1         -0.6409    0.3632   -5.4137 C.ar      1 <0>        -0.1476
      2 C2          0.4359    1.1921   -5.1582 C.ar      1 <0>        -0.0767
      3 C3          1.6054    0.6680   -4.6425 C.ar      1 <0>        -0.1447
      4 C4          1.6987   -0.6912   -4.3805 C.ar      1 <0>         0.1165
      5 C5          0.6167   -1.5206   -4.6373 C.ar      1 <0>        -0.2093
      6 C6         -0.5504   -0.9917   -5.1535 C.ar      1 <0>        -0.0799
      7 O1          2.8483   -1.2092   -3.8735 O.3       1 <0>        -0.3029
      8 C7          2.8728   -2.6168   -3.6286 C.3       1 <0>         0.0294
      9 C8          4.2384   -3.0124   -3.0632 C.3       1 <0>         0.0859
     10 H1          5.0234   -2.6753   -3.7402 H         1 <0>         0.1357
     11 C9          4.3089   -4.5338   -2.9178 C.3       1 <0>        -0.0418
     12 N1          5.6201   -4.9136   -2.3750 N.4       1 <0>        -0.5035
     13 C10         5.6878   -6.3744   -2.2354 C.3       1 <0>        -0.0077
     14 C11         7.0534   -6.7699   -1.6701 C.3       1 <0>        -0.1000
     15 C12         7.1229   -8.2685   -1.5269 C.ar      1 <0>        -0.1038
     16 C13         6.7135   -8.8688   -0.3504 C.ar      1 <0>        -0.0986
     17 C14         6.7754  -10.2420   -0.2161 C.ar      1 <0>        -0.0687
     18 C15         7.2496  -11.0200   -1.2643 C.ar      1 <0>         0.1451
     19 C16         7.6600  -10.4139   -2.4446 C.ar      1 <0>        -0.1189
     20 C17         7.5905   -9.0407   -2.5744 C.ar      1 <0>        -0.1010
     21 N2          7.3141  -12.4110   -1.1314 N.pl3     1 <0>        -0.6323
     22 C18         6.3097  -13.0776   -0.5286 C.2       1 <0>         0.5494
     23 S1          4.8905  -12.2440   -0.0575 S.2       1 <0>        -0.5828
     24 N3          6.4226  -14.4005   -0.2967 N.pl3     1 <0>        -0.6185
     25 C19         5.3360  -15.1156    0.2190 C.ar      1 <0>         0.1179
     26 C20         4.0527  -14.8634   -0.2479 C.ar      1 <0>        -0.0601
     27 C21         2.9820  -15.5710    0.2624 C.ar      1 <0>        -0.1008
     28 C22         3.1872  -16.5307    1.2381 C.ar      1 <0>        -0.0245
     29 C23         4.4650  -16.7837    1.7054 C.ar      1 <0>        -0.1024
     30 C24         5.5398  -16.0829    1.1944 C.ar      1 <0>        -0.1052
     31 Cl1         1.8393  -17.4184    1.8774 Cl        1 <0>        -0.0582
     32 O2          4.4188   -2.4027   -1.7834 O.3       1 <0>        -0.5438
     33 H2         -1.5558    0.7755   -5.8131 H         1 <0>         0.1296
     34 H3          0.3627    2.2501   -5.3624 H         1 <0>         0.1351
     35 H4          2.4464    1.3157   -4.4438 H         1 <0>         0.1331
     36 H5          0.6871   -2.5791   -4.4345 H         1 <0>         0.1236
     37 H6         -1.3929   -1.6370   -5.3537 H         1 <0>         0.1286
     38 H7          2.0940   -2.8744   -2.9108 H         1 <0>         0.0766
     39 H8          2.6975   -3.1513   -4.5622 H         1 <0>         0.0813
     40 H9          3.5240   -4.8709   -2.2409 H         1 <0>         0.1405
     41 H10         4.1713   -4.9989   -3.8940 H         1 <0>         0.1471
     42 H11         6.3467   -4.6016   -3.0017 H         1 <0>         0.4305
     43 H12         4.9028   -6.7115   -1.5585 H         1 <0>         0.1359
     44 H13         5.5502   -6.8394   -3.2116 H         1 <0>         0.1348
     45 H14         7.8384   -6.4328   -2.3470 H         1 <0>         0.0971
     46 H15         7.1910   -6.3049   -0.6939 H         1 <0>         0.0981
     47 H16         6.3452   -8.2632    0.4645 H         1 <0>         0.1307
     48 H17         6.4559  -10.7102    0.7032 H         1 <0>         0.1497
     49 H18         8.0295  -11.0161   -3.2615 H         1 <0>         0.1314
     50 H19         7.9057   -8.5691   -3.4935 H         1 <0>         0.1302
     51 H20         8.0816  -12.8958   -1.4730 H         1 <0>         0.4129
     52 H21         7.2571  -14.8568   -0.4873 H         1 <0>         0.4127
     53 H22         3.8919  -14.1143   -1.0091 H         1 <0>         0.1504
     54 H23         1.9837  -15.3750   -0.1000 H         1 <0>         0.1414
     55 H24         4.6224  -17.5329    2.4672 H         1 <0>         0.1426
     56 H25         6.5374  -16.2841    1.5560 H         1 <0>         0.1362
     57 H26         3.7543   -2.6579   -1.1290 H         1 <0>         0.3904
     58 H27         5.7475   -4.4831   -1.4714 H         1 <0>         0.4336
@<TRIPOS>BOND
     1    1    6 ar
     2    1    2 ar
     3    1   33 1
     4    2    3 ar
     5    2   34 1
     6    3    4 ar
     7    3   35 1
     8    4    5 ar
     9    4    7 1
    10    5    6 ar
    11    5   36 1
    12    6   37 1
    13    7    8 1
    14    8    9 1
    15    8   38 1
    16    8   39 1
    17    9   10 1
    18    9   11 1
    19    9   32 1
    20   11   12 1
    21   11   40 1
    22   11   41 1
    23   12   13 1
    24   12   42 1
    25   12   58 1
    26   13   14 1
    27   13   43 1
    28   13   44 1
    29   14   15 1
    30   14   45 1
    31   14   46 1
    32   15   20 ar
    33   15   16 ar
    34   16   17 ar
    35   16   47 1
    36   17   18 ar
    37   17   48 1
    38   18   19 ar
    39   18   21 1
    40   19   20 ar
    41   19   49 1
    42   20   50 1
    43   21   22 1
    44   21   51 1
    45   22   23 2
    46   22   24 1
    47   24   25 1
    48   24   52 1
    49   25   30 ar
    50   25   26 ar
    51   26   27 ar
    52   26   53 1
    53   27   28 ar
    54   27   54 1
    55   28   29 ar
    56   28   31 1
    57   29   30 ar
    58   29   55 1
    59   30   56 1
    60   32   57 1
@<TRIPOS>MOLECULE
CHEMBL46136
   68    69     0     0     0
SMALL
USER_CHARGES

@<TRIPOS>ATOM
      1 C1         -0.0187    1.5258    0.0104 C.3       1 <0>        -0.1780
      2 C2          0.0021   -0.0041    0.0020 C.3       1 <0>         0.0594
      3 C3         -1.4333   -0.5336    0.0129 C.3       1 <0>        -0.1366
      4 C4         -1.4126   -2.0635    0.0045 C.3       1 <0>        -0.1342
      5 C5         -0.6726   -2.5703    1.2440 C.3       1 <0>        -0.0950
      6 C6          0.7628   -2.0407    1.2331 C.3       1 <0>        -0.1379
      7 C7          0.7421   -0.5109    1.2415 C.3       1 <0>        -0.1352
      8 C8         -0.6518   -4.1002    1.2356 C.3       1 <0>         0.1831
      9 C9         -2.0829   -4.6290    1.1207 C.3       1 <0>        -0.1728
     10 C10         0.1711   -4.5925    0.0434 C.3       1 <0>        -0.1744
     11 N1         -0.0496   -4.5872    2.4791 N.am      1 <0>        -0.7250
     12 C11         0.0746   -5.9119    2.6940 C.2       1 <0>         0.5156
     13 O1         -0.3123   -6.7008    1.8580 O.2       1 <0>        -0.4990
     14 C12         0.6941   -6.4129    3.9732 C.3       1 <0>        -0.1246
     15 Br1         0.7207   -8.3787    3.9624 Br        1 <0>        -0.0892
     16 N2          0.6897   -0.4778   -1.2066 N.4       1 <0>        -0.4999
     17 C13        -0.0208    0.0088   -2.3967 C.3       1 <0>        -0.0535
     18 C14         0.6953   -0.4846   -3.6555 C.3       1 <0>         0.0879
     19 C15         0.0302    0.1233   -4.8920 C.3       1 <0>         0.0300
     20 O2          0.7689   -0.2434   -6.0590 O.3       1 <0>        -0.2968
     21 C16         0.3083    0.2184   -7.2513 C.ar      1 <0>         0.1196
     22 C17        -0.8282    1.0132   -7.2964 C.ar      1 <0>        -0.2065
     23 C18        -1.2941    1.4817   -8.5093 C.ar      1 <0>        -0.0839
     24 C19        -0.6289    1.1593   -9.6781 C.ar      1 <0>        -0.1432
     25 C20         0.5033    0.3673   -9.6358 C.ar      1 <0>        -0.0755
     26 C21         0.9767   -0.0992   -8.4245 C.ar      1 <0>        -0.0995
     27 C22         2.2146   -0.9574   -8.3785 C.3       1 <0>        -0.0467
     28 C23         1.8183   -2.4113   -8.3812 C.2       1 <0>        -0.1490
     29 C24         2.3035   -3.2208   -9.2897 C.2       1 <0>        -0.1878
     30 O3          0.6132   -1.9097   -3.7226 O.3       1 <0>        -0.5409
     31 H1          1.0039    1.9031    0.0027 H         1 <0>         0.0847
     32 H2         -0.5459    1.8868   -0.8726 H         1 <0>         0.0824
     33 H3         -0.5289    1.8773    0.9072 H         1 <0>         0.1080
     34 H4         -1.9435   -0.1821    0.9097 H         1 <0>         0.1145
     35 H5         -1.9605   -0.1726   -0.8702 H         1 <0>         0.0908
     36 H6         -2.4352   -2.4408    0.0122 H         1 <0>         0.1023
     37 H7         -0.9024   -2.4150   -0.8923 H         1 <0>         0.0642
     38 H8         -1.1828   -2.2188    2.1408 H         1 <0>         0.0948
     39 H9          1.2900   -2.4018    2.1162 H         1 <0>         0.0934
     40 H10         1.2730   -2.3923    0.3363 H         1 <0>         0.0669
     41 H11         1.7647   -0.1336    1.2338 H         1 <0>         0.0927
     42 H12         0.2319   -0.1594    2.1383 H         1 <0>         0.1144
     43 H13        -2.5310   -4.2666    0.1955 H         1 <0>         0.0670
     44 H14        -2.0681   -5.7189    1.1147 H         1 <0>         0.0855
     45 H15        -2.6692   -4.2782    1.9700 H         1 <0>         0.0592
     46 H16         1.1906   -4.2157    0.1252 H         1 <0>         0.0573
     47 H17         0.1859   -5.6824    0.0374 H         1 <0>         0.0880
     48 H18        -0.2770   -4.2301   -0.8818 H         1 <0>         0.0632
     49 H19         0.2598   -3.9563    3.1478 H         1 <0>         0.4003
     50 H20         1.7136   -6.0362    4.0550 H         1 <0>         0.1270
     51 H21         0.1078   -6.0622    4.8225 H         1 <0>         0.1280
     52 H22         1.6363   -0.1286   -1.2138 H         1 <0>         0.4276
     53 H23        -1.0434   -0.3685   -2.3890 H         1 <0>         0.1418
     54 H24        -0.0356    1.0987   -2.3907 H         1 <0>         0.1495
     55 H25         1.7419   -0.1822   -3.6202 H         1 <0>         0.1341
     56 H26        -0.9905   -0.2498   -4.9760 H         1 <0>         0.0759
     57 H27         0.0137    1.2092   -4.7988 H         1 <0>         0.0802
     58 H28        -1.3482    1.2649   -6.3840 H         1 <0>         0.1232
     59 H29        -2.1789    2.1000   -8.5450 H         1 <0>         0.1278
     60 H30        -0.9948    1.5267  -10.6255 H         1 <0>         0.1294
     61 H31         1.0209    0.1166  -10.5500 H         1 <0>         0.1333
     62 H32         2.8344   -0.7481   -9.2504 H         1 <0>         0.0779
     63 H33         2.7769   -0.7357   -7.4714 H         1 <0>         0.0826
     64 H34         1.1342   -2.7859   -7.6341 H         1 <0>         0.1062
     65 H35         2.0194   -4.2628   -9.2916 H         1 <0>         0.0994
     66 H36         2.9875   -2.8462  -10.0368 H         1 <0>         0.0982
     67 H37        -0.2911   -2.2504   -3.7567 H         1 <0>         0.3887
     68 H38         0.7033   -1.4867   -1.2121 H         1 <0>         0.4290
@<TRIPOS>BOND
     1    1    2 1
     2    1   31 1
     3    1   32 1
     4    1   33 1
     5    2    7 1
     6    2    3 1
     7    2   16 1
     8    3    4 1
     9    3   34 1
    10    3   35 1
    11    4    5 1
    12    4   36 1
    13    4   37 1
    14    5    6 1
    15    5    8 1
    16    5   38 1
    17    6    7 1
    18    6   39 1
    19    6   40 1
    20    7   41 1
    21    7   42 1
    22    8    9 1
    23    8   10 1
    24    8   11 1
    25    9   43 1
    26    9   44 1
    27    9   45 1
    28   10   46 1
    29   10   47 1
    30   10   48 1
    31   11   12 am
    32   11   49 1
    33   12   13 2
    34   12   14 1
    35   14   15 1
    36   14   50 1
    37   14   51 1
    38   16   17 1
    39   16   52 1
    40   16   68 1
    41   17   18 1
    42   17   53 1
    43   17   54 1
    44   18   19 1
    45   18   30 1
    46   18   55 1
    47   19   20 1
    48   19   56 1
    49   19   57 1
    50   20   21 1
    51   21   26 ar
    52   21   22 ar
    53   22   23 ar
    54   22   58 1
    55   23   24 ar
    56   23   59 1
    57   24   25 ar
    58   24   60 1
    59   25   26 ar
    60   25   61 1
    61   26   27 1
    62   27   28 1
    63   27   62 1
    64   27   63 1
    65   28   29 2
    66   28   64 1
    67   29   65 1
    68   29   66 1
    69   30   67 1
@<TRIPOS>MOLECULE
CHEMBL46136__1
   68    69     0     0     0
SMALL
USER_CHARGES

@<TRIPOS>ATOM
      1 C1         -0.0187    1.5258    0.0104 C.3       1 <0>        -0.1775
      2 C2          0.0021   -0.0041    0.0020 C.3       1 <0>         0.0596
      3 C3         -1.4333   -0.5336    0.0129 C.3       1 <0>        -0.1368
      4 C4         -1.4126   -2.0635    0.0045 C.3       1 <0>        -0.1340
      5 C5         -0.6726   -2.5703    1.2440 C.3       1 <0>        -0.0954
      6 C6          0.7628   -2.0407    1.2331 C.3       1 <0>        -0.1374
      7 C7          0.7421   -0.5109    1.2415 C.3       1 <0>        -0.1350
      8 C8         -0.6518   -4.1002    1.2356 C.3       1 <0>         0.1832
      9 C9         -2.0829   -4.6290    1.1207 C.3       1 <0>        -0.1730
     10 C10         0.1711   -4.5925    0.0434 C.3       1 <0>        -0.1758
     11 N1         -0.0496   -4.5872    2.4791 N.am      1 <0>        -0.7249
     12 C11         0.0746   -5.9119    2.6940 C.2       1 <0>         0.5157
     13 O1         -0.3123   -6.7008    1.8580 O.2       1 <0>        -0.4992
     14 C12         0.6941   -6.4129    3.9732 C.3       1 <0>        -0.1246
     15 Br1         0.7207   -8.3787    3.9624 Br        1 <0>        -0.0891
     16 N2          0.6897   -0.4778   -1.2066 N.4       1 <0>        -0.4990
     17 C13        -0.0208    0.0088   -2.3967 C.3       1 <0>        -0.0535
     18 C14         0.6953   -0.4846   -3.6555 C.3       1 <0>         0.0879
     19 C15        -0.0447    0.0222   -4.8950 C.3       1 <0>         0.0300
     20 O2          0.5543   -0.5330   -6.0676 O.3       1 <0>        -0.2967
     21 C16         0.0123   -0.1810   -7.2631 C.ar      1 <0>         0.1196
     22 C17        -1.0703    0.6858   -7.3070 C.ar      1 <0>        -0.2066
     23 C18        -1.6191    1.0425   -8.5233 C.ar      1 <0>        -0.0839
     24 C19        -1.0905    0.5364   -9.6967 C.ar      1 <0>        -0.1432
     25 C20        -0.0122   -0.3277   -9.6556 C.ar      1 <0>        -0.0756
     26 C21         0.5439   -0.6831   -8.4418 C.ar      1 <0>        -0.0993
     27 C22         1.7233   -1.6202   -8.3981 C.3       1 <0>        -0.0477
     28 C23         1.2366   -3.0307   -8.1865 C.2       1 <0>        -0.1501
     29 C24         1.5801   -3.9752   -9.0267 C.2       1 <0>        -0.1868
     30 O3          2.0359    0.0100   -3.6657 O.3       1 <0>        -0.5420
     31 H1          1.0039    1.9031    0.0027 H         1 <0>         0.0845
     32 H2         -0.5459    1.8868   -0.8726 H         1 <0>         0.0819
     33 H3         -0.5289    1.8773    0.9072 H         1 <0>         0.1080
     34 H4         -1.9435   -0.1821    0.9097 H         1 <0>         0.1148
     35 H5         -1.9605   -0.1726   -0.8702 H         1 <0>         0.0915
     36 H6         -2.4352   -2.4408    0.0122 H         1 <0>         0.1028
     37 H7         -0.9024   -2.4150   -0.8923 H         1 <0>         0.0628
     38 H8         -1.1828   -2.2188    2.1408 H         1 <0>         0.0955
     39 H9          1.2900   -2.4018    2.1162 H         1 <0>         0.0937
     40 H10         1.2730   -2.3923    0.3363 H         1 <0>         0.0660
     41 H11         1.7647   -0.1336    1.2338 H         1 <0>         0.0929
     42 H12         0.2319   -0.1594    2.1383 H         1 <0>         0.1144
     43 H13        -2.5310   -4.2666    0.1955 H         1 <0>         0.0671
     44 H14        -2.0681   -5.7189    1.1147 H         1 <0>         0.0856
     45 H15        -2.6692   -4.2782    1.9700 H         1 <0>         0.0596
     46 H16         1.1906   -4.2157    0.1252 H         1 <0>         0.0577
     47 H17         0.1859   -5.6824    0.0374 H         1 <0>         0.0887
     48 H18        -0.2770   -4.2301   -0.8818 H         1 <0>         0.0621
     49 H19         0.2598   -3.9563    3.1478 H         1 <0>         0.4005
     50 H20         1.7136   -6.0362    4.0550 H         1 <0>         0.1270
     51 H21         0.1078   -6.0622    4.8225 H         1 <0>         0.1281
     52 H22         1.6363   -0.1286   -1.2138 H         1 <0>         0.4309
     53 H23        -1.0434   -0.3685   -2.3890 H         1 <0>         0.1479
     54 H24        -0.0356    1.0987   -2.3907 H         1 <0>         0.1436
     55 H25         0.7101   -1.5745   -3.6615 H         1 <0>         0.1335
     56 H26        -1.0905   -0.2806   -4.8430 H         1 <0>         0.0804
     57 H27         0.0171    1.1097   -4.9357 H         1 <0>         0.0760
     58 H28        -1.4837    1.0811   -6.3908 H         1 <0>         0.1232
     59 H29        -2.4619    1.7169   -8.5580 H         1 <0>         0.1278
     60 H30        -1.5210    0.8165  -10.6468 H         1 <0>         0.1294
     61 H31         0.3986   -0.7219  -10.5734 H         1 <0>         0.1333
     62 H32         2.2690   -1.5617   -9.3398 H         1 <0>         0.0782
     63 H33         2.3826   -1.3365   -7.5778 H         1 <0>         0.0845
     64 H34         0.6045   -3.2628   -7.3421 H         1 <0>         0.1044
     65 H35         1.2313   -4.9860   -8.8751 H         1 <0>         0.0994
     66 H36         2.2122   -3.7430   -9.8711 H         1 <0>         0.0988
     67 H37         2.0992    0.9749   -3.6611 H         1 <0>         0.3893
     68 H38         0.7033   -1.4867   -1.2121 H         1 <0>         0.4251
@<TRIPOS>BOND
     1    1    2 1
     2    1   31 1
     3    1   32 1
     4    1   33 1
     5    2    7 1
     6    2    3 1
     7    2   16 1
     8    3    4 1
     9    3   34 1
    10    3   35 1
    11    4    5 1
    12    4   36 1
    13    4   37 1
    14    5    6 1
    15    5    8 1
    16    5   38 1
    17    6    7 1
    18    6   39 1
    19    6   40 1
    20    7   41 1
    21    7   42 1
    22    8    9 1
    23    8   10 1
    24    8   11 1
    25    9   43 1
    26    9   44 1
    27    9   45 1
    28   10   46 1
    29   10   47 1
    30   10   48 1
    31   11   12 am
    32   11   49 1
    33   12   13 2
    34   12   14 1
    35   14   15 1
    36   14   50 1
    37   14   51 1
    38   16   17 1
    39   16   52 1
    40   16   68 1
    41   17   18 1
    42   17   53 1
    43   17   54 1
    44   18   19 1
    45   18   30 1
    46   18   55 1
    47   19   20 1
    48   19   56 1
    49   19   57 1
    50   20   21 1
    51   21   26 ar
    52   21   22 ar
    53   22   23 ar
    54   22   58 1
    55   23   24 ar
    56   23   59 1
    57   24   25 ar
    58   24   60 1
    59   25   26 ar
    60   25   61 1
    61   26   27 1
    62   27   28 1
    63   27   62 1
    64   27   63 1
    65   28   29 2
    66   28   64 1
    67   29   65 1
    68   29   66 1
    69   30   67 1
@<TRIPOS>MOLECULE
CHEMBL323258
   86    89     0     0     0
SMALL
USER_CHARGES

@<TRIPOS>ATOM
      1 C1         -0.0175    1.3866    0.0041 C.ar      1 <0>        -0.0562
      2 C2          1.1687    2.0938   -0.0029 C.ar      1 <0>        -0.1950
      3 C3          2.3803    1.4147   -0.0171 C.ar      1 <0>         0.2377
      4 C4          2.3944    0.0256   -0.0243 C.ar      1 <0>        -0.1976
      5 C5          1.2045   -0.6754   -0.0172 C.ar      1 <0>        -0.0562
      6 C6          0.0001    0.0039   -0.0031 C.ar      1 <0>        -0.1761
      7 C7         -1.2963   -0.7645    0.0050 C.3       1 <0>        -0.0896
      8 C8         -1.7484   -1.0172   -1.4347 C.3       1 <0>        -0.0077
      9 N1         -3.0121   -1.7662   -1.4268 N.4       1 <0>        -0.5041
     10 C9         -3.4461   -2.0089   -2.8091 C.3       1 <0>        -0.0416
     11 C10        -4.7623   -2.7890   -2.8009 C.3       1 <0>         0.0857
     12 H1         -5.5238   -2.2112   -2.2770 H         1 <0>         0.1360
     13 C11        -5.2143   -3.0417   -4.2406 C.3       1 <0>         0.0288
     14 O1         -6.4993   -3.6668   -4.2335 O.3       1 <0>        -0.3012
     15 C12        -7.0490   -3.9617   -5.4419 C.ar      1 <0>         0.1089
     16 C13        -6.3619   -3.6603   -6.6084 C.ar      1 <0>        -0.1913
     17 C14        -6.9203   -3.9599   -7.8358 C.ar      1 <0>        -0.1061
     18 C15        -8.1677   -4.5625   -7.9017 C.ar      1 <0>         0.0802
     19 C16        -8.8544   -4.8648   -6.7352 C.ar      1 <0>        -0.1027
     20 C17        -8.2942   -4.5691   -5.5076 C.ar      1 <0>        -0.1261
     21 O2         -8.7178   -4.8567   -9.1101 O.3       1 <0>        -0.4958
     22 O3         -4.5710   -4.0389   -2.1353 O.3       1 <0>        -0.5434
     23 N2          3.5819    2.1268   -0.0247 N.pl3     1 <0>        -0.7361
     24 C18         4.8588    1.4089   -0.0396 C.3       1 <0>         0.1509
     25 C19         5.2277    1.0547   -1.4821 C.3       1 <0>        -0.1488
     26 C20         6.5458    0.2741   -1.4908 C.3       1 <0>         0.1314
     27 N3          7.5655    1.0599   -0.7828 N.am      1 <0>        -0.6326
     28 C21         7.2759    1.5296    0.5789 C.3       1 <0>         0.1160
     29 C22         5.9497    2.2961    0.5645 C.3       1 <0>        -0.1438
     30 C23         8.7443    1.3442   -1.3711 C.2       1 <0>         0.7076
     31 O4          9.0092    0.8736   -2.4604 O.2       1 <0>        -0.5839
     32 N4          9.6295    2.1501   -0.7518 N.am      1 <0>        -0.7460
     33 C24        10.8614    2.5487   -1.4372 C.3       1 <0>         0.1348
     34 C25        11.6839    3.4568   -0.5209 C.3       1 <0>        -0.1311
     35 C26        12.9704    3.8732   -1.2367 C.3       1 <0>        -0.1092
     36 C27        13.7929    4.7813   -0.3203 C.3       1 <0>        -0.0921
     37 C28        13.0658    6.1269   -0.1189 C.3       1 <0>        -0.1203
     38 C29        14.2068    7.1738   -0.0848 C.3       1 <0>        -0.1278
     39 C30        15.1937    6.6387   -1.1519 C.3       1 <0>        -0.1265
     40 C31        15.1458    5.1067   -0.9771 C.3       1 <0>        -0.1232
     41 H2         -0.9599    1.9140    0.0196 H         1 <0>         0.1217
     42 H3          1.1542    3.1737    0.0023 H         1 <0>         0.1247
     43 H4          3.3347   -0.5054   -0.0357 H         1 <0>         0.1268
     44 H5          1.2147   -1.7553   -0.0228 H         1 <0>         0.1214
     45 H6         -1.1504   -1.7180    0.5126 H         1 <0>         0.0915
     46 H7         -2.0578   -0.1868    0.5288 H         1 <0>         0.0914
     47 H8         -1.8943   -0.0638   -1.9424 H         1 <0>         0.1327
     48 H9         -0.9869   -1.5950   -1.9585 H         1 <0>         0.1321
     49 H10        -2.8770   -2.6488   -0.9569 H         1 <0>         0.4329
     50 H11        -3.5920   -1.0554   -3.3168 H         1 <0>         0.1466
     51 H12        -2.6846   -2.5866   -3.3329 H         1 <0>         0.1394
     52 H13        -5.2746   -2.0932   -4.7742 H         1 <0>         0.0819
     53 H14        -4.4960   -3.6934   -4.7379 H         1 <0>         0.0768
     54 H15        -5.3906   -3.1910   -6.5571 H         1 <0>         0.1285
     55 H16        -6.3856   -3.7245   -8.7442 H         1 <0>         0.1352
     56 H17        -9.8259   -5.3337   -6.7865 H         1 <0>         0.1417
     57 H18        -8.8272   -4.8079   -4.5992 H         1 <0>         0.1387
     58 H19        -8.4935   -5.7374   -9.4404 H         1 <0>         0.3939
     59 H20        -3.9055   -4.6064   -2.5479 H         1 <0>         0.3900
     60 H21         3.5708    3.0968   -0.0200 H         1 <0>         0.4033
     61 H22         4.7682    0.4946    0.5468 H         1 <0>         0.0844
     62 H23         4.4392    0.4422   -1.9193 H         1 <0>         0.0784
     63 H24         5.3428    1.9696   -2.0633 H         1 <0>         0.0723
     64 H25         6.4071   -0.6827   -0.9875 H         1 <0>         0.0672
     65 H26         6.8637    0.1054   -2.5197 H         1 <0>         0.0991
     66 H27         7.1968    0.6751    1.2511 H         1 <0>         0.0756
     67 H28         8.0756    2.1893    0.9157 H         1 <0>         0.0841
     68 H29         6.0580    3.1993   -0.0360 H         1 <0>         0.0759
     69 H30         5.6750    2.5672    1.5839 H         1 <0>         0.0854
     70 H31         9.4509    2.4661    0.1477 H         1 <0>         0.3947
     71 H32        11.4426    1.6607   -1.6856 H         1 <0>         0.0684
     72 H33        10.6106    3.0864   -2.3517 H         1 <0>         0.0660
     73 H34        11.1026    4.3448   -0.2725 H         1 <0>         0.0694
     74 H35        11.9346    2.9192    0.3936 H         1 <0>         0.0687
     75 H36        13.5516    2.9852   -1.4851 H         1 <0>         0.0669
     76 H37        12.7197    4.4109   -2.1511 H         1 <0>         0.0673
     77 H38        13.9524    4.2946    0.6418 H         1 <0>         0.0714
     78 H39        12.3915    6.3246   -0.9522 H         1 <0>         0.0660
     79 H40        12.5190    6.1277    0.8240 H         1 <0>         0.0621
     80 H41        13.8347    8.1599   -0.3626 H         1 <0>         0.0650
     81 H42        14.6775    7.2002    0.8980 H         1 <0>         0.0662
     82 H43        14.8630    6.9191   -2.1520 H         1 <0>         0.0646
     83 H44        16.1998    7.0130   -0.9628 H         1 <0>         0.0645
     84 H45        15.9619    4.7787   -0.3333 H         1 <0>         0.0634
     85 H46        15.2164    4.6177   -1.9487 H         1 <0>         0.0654
     86 H47        -3.7170   -1.2314   -0.9419 H         1 <0>         0.4305
@<TRIPOS>BOND
     1    1    6 ar
     2    1    2 ar
     3    1   41 1
     4    2    3 ar
     5    2   42 1
     6    3    4 ar
     7    3   23 1
     8    4    5 ar
     9    4   43 1
    10    5    6 ar
    11    5   44 1
    12    6    7 1
    13    7    8 1
    14    7   45 1
    15    7   46 1
    16    8    9 1
    17    8   47 1
    18    8   48 1
    19    9   10 1
    20    9   49 1
    21    9   86 1
    22   10   11 1
    23   10   50 1
    24   10   51 1
    25   11   12 1
    26   11   13 1
    27   11   22 1
    28   13   14 1
    29   13   52 1
    30   13   53 1
    31   14   15 1
    32   15   20 ar
    33   15   16 ar
    34   16   17 ar
    35   16   54 1
    36   17   18 ar
    37   17   55 1
    38   18   19 ar
    39   18   21 1
    40   19   20 ar
    41   19   56 1
    42   20   57 1
    43   21   58 1
    44   22   59 1
    45   23   24 1
    46   23   60 1
    47   24   29 1
    48   24   25 1
    49   24   61 1
    50   25   26 1
    51   25   62 1
    52   25   63 1
    53   26   27 1
    54   26   64 1
    55   26   65 1
    56   27   28 1
    57   27   30 am
    58   28   29 1
    59   28   66 1
    60   28   67 1
    61   29   68 1
    62   29   69 1
    63   30   31 2
    64   30   32 am
    65   32   33 1
    66   32   70 1
    67   33   34 1
    68   33   71 1
    69   33   72 1
    70   34   35 1
    71   34   73 1
    72   34   74 1
    73   35   36 1
    74   35   75 1
    75   35   76 1
    76   36   40 1
    77   36   37 1
    78   36   77 1
    79   37   38 1
    80   37   78 1
    81   37   79 1
    82   38   39 1
    83   38   80 1
    84   38   81 1
    85   39   40 1
    86   39   82 1
    87   39   83 1
    88   40   84 1
    89   40   85 1
@<TRIPOS>MOLECULE
CHEMBL292407
   64    66     0     0     0
SMALL
USER_CHARGES

@<TRIPOS>ATOM
      1 C1          3.3516    3.3365   -5.4986 C.3       1 <0>        -0.1544
      2 C2          3.3509    2.0833   -4.6208 C.3       1 <0>        -0.1260
      3 C3          3.5388    0.8450   -5.4996 C.3       1 <0>        -0.1213
      4 C4          3.5381   -0.4081   -4.6218 C.3       1 <0>        -0.1208
      5 C5          3.7260   -1.6464   -5.5006 C.3       1 <0>        -0.1187
      6 C6          3.7252   -2.8996   -4.6229 C.3       1 <0>        -0.1167
      7 C7          3.9132   -4.1379   -5.5016 C.3       1 <0>        -0.1351
      8 C8          3.9124   -5.3911   -4.6239 C.3       1 <0>         0.1316
      9 N1          4.0924   -6.5767   -5.4653 N.am      1 <0>        -0.6229
     10 C9          5.4402   -7.0751   -5.7501 C.3       1 <0>         0.0585
     11 C10         3.0179   -7.2090   -5.9774 C.2       1 <0>         0.7180
     12 O1          1.9048   -6.7496   -5.8092 O.2       1 <0>        -0.5561
     13 N2          3.1774   -8.3505   -6.6760 N.am      1 <0>        -0.5668
     14 C11         4.4389   -9.0837   -6.8108 C.3       1 <0>         0.0825
     15 C12         4.1064  -10.3002   -7.6901 C.3       1 <0>        -0.0874
     16 C13         2.6324  -10.1575   -7.9959 C.ar      1 <0>        -0.1645
     17 C14         2.1616   -9.0122   -7.3735 C.ar      1 <0>         0.2293
     18 C15         0.8149   -8.6717   -7.5095 C.ar      1 <0>        -0.1536
     19 C16        -0.0322   -9.4681   -8.2508 C.ar      1 <0>         0.0153
     20 C17         0.4464  -10.6106   -8.8647 C.ar      1 <0>        -0.7025
     21 C18         1.7809  -10.9504   -8.7406 C.ar      1 <0>         0.0267
     22 S1         -0.6394  -11.6260   -9.8106 S.o2      1 <0>         2.6950
     23 O2         -0.0290  -12.9065   -9.8933 O.2       1 <0>        -0.9523
     24 O3         -1.9421  -11.4362   -9.2756 O.2       1 <0>        -0.9469
     25 N3         -0.6659  -11.0141  -11.3492 N.pl3     1 <0>        -1.0573
     26 C19        -1.1758   -9.7350  -11.5834 C.ar      1 <0>         0.1394
     27 C20        -2.3912   -9.3574  -11.0268 C.ar      1 <0>        -0.1490
     28 C21        -2.8922   -8.0918  -11.2600 C.ar      1 <0>        -0.0977
     29 C22        -2.1857   -7.2009  -12.0470 C.ar      1 <0>        -0.1250
     30 C23        -0.9754   -7.5735  -12.6026 C.ar      1 <0>        -0.1040
     31 C24        -0.4658   -8.8356  -12.3687 C.ar      1 <0>        -0.1275
     32 H1          4.3012    3.4081   -6.0289 H         1 <0>         0.0531
     33 H2          2.5365    3.2756   -6.2196 H         1 <0>         0.0534
     34 H3          3.2177    4.2187   -4.8725 H         1 <0>         0.0536
     35 H4          4.1660    2.1443   -3.8998 H         1 <0>         0.0602
     36 H5          2.4013    2.0118   -4.0905 H         1 <0>         0.0606
     37 H6          2.7237    0.7841   -6.2206 H         1 <0>         0.0608
     38 H7          4.4884    0.9166   -6.0299 H         1 <0>         0.0602
     39 H8          4.3532   -0.3472   -3.9008 H         1 <0>         0.0610
     40 H9          2.5885   -0.4797   -4.0915 H         1 <0>         0.0617
     41 H10         2.9109   -1.7074   -6.2217 H         1 <0>         0.0614
     42 H11         4.6756   -1.5749   -6.0309 H         1 <0>         0.0602
     43 H12         4.5404   -2.8386   -3.9018 H         1 <0>         0.0630
     44 H13         2.7756   -2.9712   -4.0925 H         1 <0>         0.0652
     45 H14         3.0980   -4.1988   -6.2227 H         1 <0>         0.0679
     46 H15         4.8628   -4.0663   -6.0319 H         1 <0>         0.0623
     47 H16         4.7276   -5.3301   -3.9028 H         1 <0>         0.0814
     48 H17         2.9628   -5.4626   -4.0936 H         1 <0>         0.0863
     49 H18         5.5514   -8.0780   -5.3378 H         1 <0>         0.0715
     50 H19         5.5958   -7.1063   -6.8285 H         1 <0>         0.0685
     51 H20         6.1764   -6.4119   -5.2958 H         1 <0>         0.0827
     52 H21         5.1889   -8.4596   -7.2968 H         1 <0>         0.0998
     53 H22         4.7932   -9.4096   -5.8328 H         1 <0>         0.0905
     54 H23         4.6898  -10.2748   -8.6105 H         1 <0>         0.0963
     55 H24         4.2939  -11.2256   -7.1455 H         1 <0>         0.0968
     56 H25         0.4347   -7.7805   -7.0325 H         1 <0>         0.1503
     57 H26        -1.0732   -9.1986   -8.3518 H         1 <0>         0.1440
     58 H27         2.1563  -11.8430   -9.2189 H         1 <0>         0.1444
     59 H28        -0.3272  -11.5439  -12.0878 H         1 <0>         0.4269
     60 H29        -2.9439  -10.0530  -10.4127 H         1 <0>         0.1557
     61 H30        -3.8371   -7.7976  -10.8275 H         1 <0>         0.1307
     62 H31        -2.5801   -6.2120  -12.2283 H         1 <0>         0.1256
     63 H32        -0.4261   -6.8753  -13.2167 H         1 <0>         0.1267
     64 H33         0.4816   -9.1245  -12.7993 H         1 <0>         0.1272
@<TRIPOS>BOND
     1    1    2 1
     2    1   32 1
     3    1   33 1
     4    1   34 1
     5    2    3 1
     6    2   35 1
     7    2   36 1
     8    3    4 1
     9    3   37 1
    10    3   38 1
    11    4    5 1
    12    4   39 1
    13    4   40 1
    14    5    6 1
    15    5   41 1
    16    5   42 1
    17    6    7 1
    18    6   43 1
    19    6   44 1
    20    7    8 1
    21    7   45 1
    22    7   46 1
    23    8    9 1
    24    8   47 1
    25    8   48 1
    26    9   10 1
    27    9   11 am
    28   10   49 1
    29   10   50 1
    30   10   51 1
    31   11   12 2
    32   11   13 am
    33   13   17 1
    34   13   14 1
    35   14   15 1
    36   14   52 1
    37   14   53 1
    38   15   16 1
    39   15   54 1
    40   15   55 1
    41   16   21 ar
    42   16   17 ar
    43   17   18 ar
    44   18   19 ar
    45   18   56 1
    46   19   20 ar
    47   19   57 1
    48   20   21 ar
    49   20   22 1
    50   21   58 1
    51   22   23 2
    52   22   24 2
    53   22   25 1
    54   25   26 1
    55   25   59 1
    56   26   31 ar
    57   26   27 ar
    58   27   28 ar
    59   27   60 1
    60   28   29 ar
    61   28   61 1
    62   29   30 ar
    63   29   62 1
    64   30   31 ar
    65   30   63 1
    66   31   64 1
@<TRIPOS>MOLECULE
CHEMBL104481
   80    83     0     0     0
SMALL
USER_CHARGES

@<TRIPOS>ATOM
      1 C1         -0.0176    1.3870    0.0035 C.ar      1 <0>        -0.0562
      2 C2          1.1686    2.0942   -0.0034 C.ar      1 <0>        -0.1950
      3 C3          2.3803    1.4150   -0.0175 C.ar      1 <0>         0.2377
      4 C4          2.3942    0.0260   -0.0245 C.ar      1 <0>        -0.1977
      5 C5          1.2043   -0.6750   -0.0175 C.ar      1 <0>        -0.0562
      6 C6         -0.0001    0.0043   -0.0035 C.ar      1 <0>        -0.1762
      7 C7         -1.2965   -0.7640    0.0045 C.3       1 <0>        -0.0896
      8 C8         -1.7485   -1.0168   -1.4352 C.3       1 <0>        -0.0077
      9 N1         -3.0122   -1.7657   -1.4273 N.4       1 <0>        -0.5041
     10 C9         -3.4462   -2.0084   -2.8096 C.3       1 <0>        -0.0416
     11 C10        -4.7624   -2.7885   -2.8014 C.3       1 <0>         0.0857
     12 H1         -5.5239   -2.2107   -2.2776 H         1 <0>         0.1360
     13 C11        -5.2144   -3.0413   -4.2411 C.3       1 <0>         0.0288
     14 O1         -6.4994   -3.6663   -4.2341 O.3       1 <0>        -0.3011
     15 C12        -7.0490   -3.9613   -5.4424 C.ar      1 <0>         0.1089
     16 C13        -6.3619   -3.6600   -6.6089 C.ar      1 <0>        -0.1914
     17 C14        -6.9201   -3.9596   -7.8364 C.ar      1 <0>        -0.1061
     18 C15        -8.1676   -4.5622   -7.9023 C.ar      1 <0>         0.0802
     19 C16        -8.8543   -4.8644   -6.7358 C.ar      1 <0>        -0.1027
     20 C17        -8.2942   -4.5687   -5.5082 C.ar      1 <0>        -0.1261
     21 O2         -8.7176   -4.8564   -9.1107 O.3       1 <0>        -0.4958
     22 O3         -4.5712   -4.0384   -2.1357 O.3       1 <0>        -0.5434
     23 N2          3.5818    2.1271   -0.0250 N.pl3     1 <0>        -0.7360
     24 C18         4.8587    1.4092   -0.0399 C.3       1 <0>         0.1510
     25 C19         5.2277    1.0548   -1.4823 C.3       1 <0>        -0.1486
     26 C20         6.5457    0.2742   -1.4909 C.3       1 <0>         0.1316
     27 N3          7.5655    1.0600   -0.7828 N.am      1 <0>        -0.6327
     28 C21         7.2758    1.5298    0.5788 C.3       1 <0>         0.1160
     29 C22         5.9496    2.2964    0.5643 C.3       1 <0>        -0.1436
     30 C23         8.7443    1.3442   -1.3711 C.2       1 <0>         0.7091
     31 O4          9.0093    0.8735   -2.4604 O.2       1 <0>        -0.5835
     32 N4          9.6295    2.1501   -0.7518 N.am      1 <0>        -0.7420
     33 C24        10.8614    2.5487   -1.4372 C.3       1 <0>         0.1607
     34 C25        10.5842    3.7714   -2.3142 C.3       1 <0>        -0.1276
     35 C26        11.8707    4.1878   -3.0301 C.3       1 <0>        -0.1181
     36 C27        12.9413    4.5355   -1.9938 C.3       1 <0>        -0.1230
     37 C28        13.2184    3.3129   -1.1168 C.3       1 <0>        -0.1167
     38 C29        11.9319    2.8965   -0.4010 C.3       1 <0>        -0.1260
     39 H2         -0.9599    1.9145    0.0190 H         1 <0>         0.1216
     40 H3          1.1542    3.1741    0.0017 H         1 <0>         0.1247
     41 H4          3.3345   -0.5051   -0.0358 H         1 <0>         0.1267
     42 H5          1.2145   -1.7549   -0.0230 H         1 <0>         0.1214
     43 H6         -1.1506   -1.7174    0.5123 H         1 <0>         0.0915
     44 H7         -2.0580   -0.1862    0.5283 H         1 <0>         0.0914
     45 H8         -1.8943   -0.0634   -1.9429 H         1 <0>         0.1327
     46 H9         -0.9870   -1.5946   -1.9589 H         1 <0>         0.1322
     47 H10        -2.8772   -2.6483   -0.9573 H         1 <0>         0.4329
     48 H11        -3.5920   -1.0550   -3.3173 H         1 <0>         0.1466
     49 H12        -2.6847   -2.5862   -3.3333 H         1 <0>         0.1394
     50 H13        -5.2746   -2.0928   -4.7748 H         1 <0>         0.0819
     51 H14        -4.4960   -3.6930   -4.7383 H         1 <0>         0.0768
     52 H15        -5.3905   -3.1908   -6.5576 H         1 <0>         0.1285
     53 H16        -6.3854   -3.7244   -8.7447 H         1 <0>         0.1352
     54 H17        -9.8259   -5.3333   -6.7871 H         1 <0>         0.1417
     55 H18        -8.8273   -4.8073   -4.5998 H         1 <0>         0.1387
     56 H19        -8.4933   -5.7372   -9.4409 H         1 <0>         0.3939
     57 H20        -3.9057   -4.6060   -2.5482 H         1 <0>         0.3900
     58 H21         3.5708    3.0971   -0.0204 H         1 <0>         0.4032
     59 H22         4.7681    0.4949    0.5466 H         1 <0>         0.0843
     60 H23         4.4392    0.4423   -1.9195 H         1 <0>         0.0782
     61 H24         5.3429    1.9697   -2.0635 H         1 <0>         0.0722
     62 H25         6.4070   -0.6826   -0.9875 H         1 <0>         0.0668
     63 H26         6.8637    0.1054   -2.5197 H         1 <0>         0.0990
     64 H27         7.1967    0.6754    1.2510 H         1 <0>         0.0753
     65 H28         8.0755    2.1894    0.9156 H         1 <0>         0.0841
     66 H29         6.0580    3.1995   -0.0363 H         1 <0>         0.0757
     67 H30         5.6749    2.5675    1.5837 H         1 <0>         0.0851
     68 H31         9.4509    2.4661    0.1477 H         1 <0>         0.3935
     69 H32        11.2126    1.7265   -2.0607 H         1 <0>         0.0904
     70 H33         9.8215    3.5237   -3.0525 H         1 <0>         0.0647
     71 H34        10.2329    4.5936   -1.6908 H         1 <0>         0.0613
     72 H35        12.2220    3.3656   -3.6535 H         1 <0>         0.0655
     73 H36        11.6733    5.0588   -3.6548 H         1 <0>         0.0655
     74 H37        13.8578    4.8322   -2.5038 H         1 <0>         0.0661
     75 H38        12.5900    5.3577   -1.3703 H         1 <0>         0.0625
     76 H39        13.5697    2.4907   -1.7402 H         1 <0>         0.0666
     77 H40        13.9811    3.5606   -0.3785 H         1 <0>         0.0692
     78 H41        11.5806    3.7187    0.2225 H         1 <0>         0.0668
     79 H42        12.1294    2.0254    0.2238 H         1 <0>         0.0687
     80 H43        -3.7171   -1.2309   -0.9425 H         1 <0>         0.4304
@<TRIPOS>BOND
     1    1    6 ar
     2    1    2 ar
     3    1   39 1
     4    2    3 ar
     5    2   40 1
     6    3    4 ar
     7    3   23 1
     8    4    5 ar
     9    4   41 1
    10    5    6 ar
    11    5   42 1
    12    6    7 1
    13    7    8 1
    14    7   43 1
    15    7   44 1
    16    8    9 1
    17    8   45 1
    18    8   46 1
    19    9   10 1
    20    9   47 1
    21    9   80 1
    22   10   11 1
    23   10   48 1
    24   10   49 1
    25   11   12 1
    26   11   13 1
    27   11   22 1
    28   13   14 1
    29   13   50 1
    30   13   51 1
    31   14   15 1
    32   15   20 ar
    33   15   16 ar
    34   16   17 ar
    35   16   52 1
    36   17   18 ar
    37   17   53 1
    38   18   19 ar
    39   18   21 1
    40   19   20 ar
    41   19   54 1
    42   20   55 1
    43   21   56 1
    44   22   57 1
    45   23   24 1
    46   23   58 1
    47   24   29 1
    48   24   25 1
    49   24   59 1
    50   25   26 1
    51   25   60 1
    52   25   61 1
    53   26   27 1
    54   26   62 1
    55   26   63 1
    56   27   28 1
    57   27   30 am
    58   28   29 1
    59   28   64 1
    60   28   65 1
    61   29   66 1
    62   29   67 1
    63   30   31 2
    64   30   32 am
    65   32   33 1
    66   32   68 1
    67   33   38 1
    68   33   34 1
    69   33   69 1
    70   34   35 1
    71   34   70 1
    72   34   71 1
    73   35   36 1
    74   35   72 1
    75   35   73 1
    76   36   37 1
    77   36   74 1
    78   36   75 1
    79   37   38 1
    80   37   76 1
    81   37   77 1
    82   38   78 1
    83   38   79 1
@<TRIPOS>MOLECULE
CHEMBL509729
   73    77     0     0     0
SMALL
USER_CHARGES

@<TRIPOS>ATOM
      1 C1          0.1333    0.0812    0.2961 C.ar      1 <0>        -0.0984
      2 C2          1.0692    1.0861    0.1348 C.ar      1 <0>        -0.0984
      3 C3          2.4167    0.7791    0.1129 C.ar      1 <0>        -0.1285
      4 C4          2.8294   -0.5328    0.2518 C.ar      1 <0>        -0.0992
      5 C5          1.8935   -1.5386    0.4133 C.ar      1 <0>        -0.0300
      6 C6          0.5446   -1.2307    0.4355 C.ar      1 <0>        -0.0928
      7 Cl1         2.4110   -3.1865    0.5872 Cl        1 <0>        -0.0487
      8 C7          3.4361    1.8750   -0.0630 C.3       1 <0>         0.1376
      9 H1          3.0160    2.8205    0.2797 H         1 <0>         0.1347
     10 C8          3.8115    1.9898   -1.5418 C.3       1 <0>        -0.0481
     11 N1          4.8052    3.0580   -1.7132 N.4       1 <0>        -0.5017
     12 C9          5.1656    3.1683   -3.1331 C.3       1 <0>         0.0257
     13 H2          4.2653    3.3150   -3.7299 H         1 <0>         0.1449
     14 C10         6.1169    4.3538   -3.3337 C.3       1 <0>        -0.1364
     15 C11         6.2819    4.5906   -4.8334 C.3       1 <0>        -0.0682
     16 C12         6.6484    3.3087   -5.5349 C.ar      1 <0>        -0.1298
     17 C13         7.2001    3.4036   -6.8068 C.ar      1 <0>        -0.0727
     18 C14         7.5520    2.2692   -7.5060 C.ar      1 <0>        -0.1719
     19 C15         7.3533    1.0200   -6.9349 C.ar      1 <0>         0.1486
     20 C16         6.8063    0.9259   -5.6666 C.ar      1 <0>        -0.1514
     21 C17         6.4558    2.0705   -4.9636 C.ar      1 <0>        -0.0588
     22 C18         5.8791    1.8951   -3.5829 C.3       1 <0>        -0.0892
     23 O1          7.6935   -0.1049   -7.6172 O.3       1 <0>        -0.2524
     24 C19         8.2333    0.0391   -8.8560 C.ar      1 <0>         0.0875
     25 C20         9.6063    0.1497   -9.0033 C.ar      1 <0>        -0.1367
     26 C21        10.1608    0.2976  -10.2764 C.ar      1 <0>        -0.0747
     27 C22         9.3276    0.3334  -11.3965 C.ar      1 <0>        -0.1459
     28 C23         7.9545    0.2220  -11.2397 C.ar      1 <0>         0.2110
     29 C24         7.4088    0.0694   -9.9712 C.ar      1 <0>        -0.2088
     30 N2          7.1192    0.2581  -12.3590 N.pl3     1 <0>        -0.7458
     31 C25         7.6942    0.4135  -13.6975 C.3       1 <0>         0.1512
     32 C26         8.1116   -0.9566  -14.2355 C.3       1 <0>        -0.1342
     33 C27         8.7122   -0.7942  -15.6333 C.3       1 <0>        -0.1204
     34 C28         7.6702   -0.1754  -16.5673 C.3       1 <0>        -0.1201
     35 C29         7.2528    1.1947  -16.0293 C.3       1 <0>        -0.1168
     36 C30         6.6523    1.0324  -14.6314 C.3       1 <0>        -0.1220
     37 C31        11.6229    0.4162  -10.4376 C.2       1 <0>         0.5193
     38 O2         12.3508    0.3851   -9.4554 O.co2     1 <0>        -0.6814
     39 O3         12.1065    0.5457  -11.5533 O.co2     1 <0>        -0.6777
     40 O4          4.6031    1.5671    0.7021 O.3       1 <0>        -0.5468
     41 H3         -0.9193    0.3222    0.3177 H         1 <0>         0.1417
     42 H4          0.7472    2.1111    0.0255 H         1 <0>         0.1348
     43 H5          3.8823   -0.7726    0.2340 H         1 <0>         0.1342
     44 H6         -0.1865   -2.0155    0.5615 H         1 <0>         0.1422
     45 H7          4.2316    1.0443   -1.8845 H         1 <0>         0.1391
     46 H8          2.9213    2.2246   -2.1254 H         1 <0>         0.1462
     47 H9          4.4163    3.9333   -1.3960 H         1 <0>         0.4291
     48 H10         5.6976    5.2443   -2.8654 H         1 <0>         0.0910
     49 H11         7.0858    4.1263   -2.8892 H         1 <0>         0.0941
     50 H12         5.3453    4.9692   -5.2428 H         1 <0>         0.0831
     51 H13         7.0686    5.3272   -4.9966 H         1 <0>         0.0945
     52 H14         7.3543    4.3755   -7.2518 H         1 <0>         0.1292
     53 H15         7.9801    2.3520   -8.4941 H         1 <0>         0.1401
     54 H16         6.6504   -0.0454   -5.2209 H         1 <0>         0.1315
     55 H17         6.6841    1.6682   -2.8840 H         1 <0>         0.0973
     56 H18         5.1683    1.0689   -3.5920 H         1 <0>         0.0960
     57 H19        10.2472    0.1219   -8.1345 H         1 <0>         0.1308
     58 H20         9.7520    0.4480  -12.3830 H         1 <0>         0.1351
     59 H21         6.3392   -0.0216   -9.8526 H         1 <0>         0.1175
     60 H22         6.1585    0.1802  -12.2499 H         1 <0>         0.3929
     61 H23         8.5670    1.0644  -13.6446 H         1 <0>         0.0835
     62 H24         8.8539   -1.3975  -13.5701 H         1 <0>         0.0699
     63 H25         7.2389   -1.6074  -14.2883 H         1 <0>         0.0603
     64 H26         9.5849   -0.1434  -15.5805 H         1 <0>         0.0680
     65 H27         9.0095   -1.7703  -16.0166 H         1 <0>         0.0640
     66 H28         8.0981   -0.0597  -17.5631 H         1 <0>         0.0625
     67 H29         6.7975   -0.8262  -16.6201 H         1 <0>         0.0595
     68 H30         8.1256    1.8456  -15.9764 H         1 <0>         0.0666
     69 H31         6.5106    1.6356  -16.6946 H         1 <0>         0.0638
     70 H32         5.7796    0.3815  -14.6843 H         1 <0>         0.0634
     71 H33         6.3549    2.0085  -14.2481 H         1 <0>         0.0652
     72 H34         5.0305    0.7369    0.4509 H         1 <0>         0.3899
     73 H35         5.6292    2.8407   -1.1730 H         1 <0>         0.4305
@<TRIPOS>BOND
     1    1    6 ar
     2    1    2 ar
     3    1   41 1
     4    2    3 ar
     5    2   42 1
     6    3    4 ar
     7    3    8 1
     8    4    5 ar
     9    4   43 1
    10    5    6 ar
    11    5    7 1
    12    6   44 1
    13    8    9 1
    14    8   10 1
    15    8   40 1
    16   10   11 1
    17   10   45 1
    18   10   46 1
    19   11   12 1
    20   11   47 1
    21   11   73 1
    22   12   13 1
    23   12   22 1
    24   12   14 1
    25   14   15 1
    26   14   48 1
    27   14   49 1
    28   15   16 1
    29   15   50 1
    30   15   51 1
    31   16   21 ar
    32   16   17 ar
    33   17   18 ar
    34   17   52 1
    35   18   19 ar
    36   18   53 1
    37   19   20 ar
    38   19   23 1
    39   20   21 ar
    40   20   54 1
    41   21   22 1
    42   22   55 1
    43   22   56 1
    44   23   24 1
    45   24   29 ar
    46   24   25 ar
    47   25   26 ar
    48   25   57 1
    49   26   27 ar
    50   26   37 1
    51   27   28 ar
    52   27   58 1
    53   28   29 ar
    54   28   30 1
    55   29   59 1
    56   30   31 1
    57   30   60 1
    58   31   36 1
    59   31   32 1
    60   31   61 1
    61   32   33 1
    62   32   62 1
    63   32   63 1
    64   33   34 1
    65   33   64 1
    66   33   65 1
    67   34   35 1
    68   34   66 1
    69   34   67 1
    70   35   36 1
    71   35   68 1
    72   35   69 1
    73   36   70 1
    74   36   71 1
    75   37   38 2
    76   37   39 1
    77   40   72 1
@<TRIPOS>MOLECULE
CHEMBL467103
   76    80     0     0     0
SMALL
USER_CHARGES

@<TRIPOS>ATOM
      1 C1         -0.0807    1.3435    0.0111 C.ar      1 <0>        -0.1457
      2 C2          1.1028    2.0586    0.0120 C.ar      1 <0>        -0.0755
      3 C3          2.3133    1.3930    0.0008 C.ar      1 <0>        -0.1436
      4 C4          2.3408    0.0060   -0.0108 C.ar      1 <0>         0.1147
      5 C5          1.1520   -0.7091   -0.0112 C.ar      1 <0>        -0.2098
      6 C6         -0.0559   -0.0388   -0.0005 C.ar      1 <0>        -0.0802
      7 O1          3.5304   -0.6511   -0.0222 O.3       1 <0>        -0.3028
      8 C7          3.4826   -2.0792   -0.0338 C.3       1 <0>         0.0300
      9 C8          4.9072   -2.6371   -0.0456 C.3       1 <0>         0.0851
     10 H1          5.4562   -2.2138   -0.8867 H         1 <0>         0.1366
     11 C9          4.8574   -4.1600   -0.1837 C.3       1 <0>        -0.0415
     12 N1          6.2252   -4.6957   -0.1950 N.4       1 <0>        -0.5042
     13 C10         6.1774   -6.1579   -0.3276 C.3       1 <0>        -0.0063
     14 C11         7.6020   -6.7158   -0.3393 C.3       1 <0>        -0.1036
     15 C12         7.5530   -8.2158   -0.4754 C.ar      1 <0>        -0.1109
     16 C13         7.4926   -9.0095    0.6554 C.ar      1 <0>        -0.0886
     17 C14         7.4476  -10.3845    0.5342 C.ar      1 <0>        -0.1119
     18 C15         7.4624  -10.9699   -0.7251 C.ar      1 <0>         0.1516
     19 C16         7.5226  -10.1701   -1.8587 C.ar      1 <0>        -0.1334
     20 C17         7.5626   -8.7954   -1.7308 C.ar      1 <0>        -0.0867
     21 N2          7.4173  -12.3627   -0.8513 N.am      1 <0>        -0.6645
     22 C18         8.0362  -13.1422    0.0575 C.2       1 <0>         0.5145
     23 O2          8.5605  -12.6410    1.0296 O.2       1 <0>        -0.4915
     24 C19         8.0768  -14.6364   -0.1342 C.3       1 <0>        -0.0998
     25 C20         8.8216  -15.2699    1.0126 C.cat     1 <0>         0.3184
     26 N3          8.3045  -15.6047    2.1630 N.pl3     1 <0>        -0.4643
     27 C21         9.2591  -16.1406    2.9379 C.2       1 <0>         0.0137
     28 C22        10.4115  -16.1379    2.2412 C.2       1 <0>         0.0341
     29 N4         10.1334  -15.5905    1.0178 N.pl3     1 <0>        -0.3881
     30 C23        11.0822  -15.3876   -0.0798 C.3       1 <0>         0.1348
     31 C24        11.6291  -13.9847   -0.0182 C.ar      1 <0>        -0.1423
     32 C25        10.9704  -12.9608   -0.6966 C.ar      1 <0>        -0.1038
     33 C26        11.4379  -11.6831   -0.6619 C.ar      1 <0>        -0.0824
     34 C27        12.6019  -11.3883    0.0684 C.ar      1 <0>        -0.0341
     35 C28        13.1146  -10.0811    0.1281 C.ar      1 <0>        -0.1141
     36 C29        14.2440   -9.8329    0.8456 C.ar      1 <0>        -0.0956
     37 C30        14.9026  -10.8568    1.5243 C.ar      1 <0>        -0.1064
     38 C31        14.4352  -12.1345    1.4891 C.ar      1 <0>        -0.1016
     39 C32        13.2715  -12.4293    0.7585 C.ar      1 <0>        -0.0569
     40 C33        12.7557  -13.7355    0.7035 C.ar      1 <0>        -0.0564
     41 O3          5.5645   -2.2907    1.1751 O.3       1 <0>        -0.5429
     42 H2         -1.0260    1.8657    0.0240 H         1 <0>         0.1307
     43 H3          1.0808    3.1383    0.0210 H         1 <0>         0.1363
     44 H4          3.2374    1.9520    0.0008 H         1 <0>         0.1336
     45 H5          1.1709   -1.7889   -0.0206 H         1 <0>         0.1223
     46 H6         -0.9816   -0.5951   -0.0009 H         1 <0>         0.1287
     47 H7          2.9614   -2.4325    0.8559 H         1 <0>         0.0758
     48 H8          2.9524   -2.4178   -0.9239 H         1 <0>         0.0809
     49 H9          4.3084   -4.5834    0.6575 H         1 <0>         0.1398
     50 H10         4.3560   -4.4242   -1.1147 H         1 <0>         0.1476
     51 H11         6.7334   -4.3038   -0.9736 H         1 <0>         0.4321
     52 H12         5.6284   -6.5812    0.5136 H         1 <0>         0.1334
     53 H13         5.6760   -6.4221   -1.2586 H         1 <0>         0.1349
     54 H14         8.1510   -6.2925   -1.1805 H         1 <0>         0.0995
     55 H15         8.1034   -6.4516    0.5917 H         1 <0>         0.0986
     56 H16         7.4811   -8.5536    1.6344 H         1 <0>         0.1299
     57 H17         7.4012  -11.0039    1.4177 H         1 <0>         0.1415
     58 H18         7.5346  -10.6223   -2.8394 H         1 <0>         0.1355
     59 H19         7.6052   -8.1727   -2.6121 H         1 <0>         0.1335
     60 H20         6.9407  -12.7673   -1.5930 H         1 <0>         0.4210
     61 H21         7.0594  -15.0263   -0.1663 H         1 <0>         0.1551
     62 H22         8.5848  -14.8690   -1.0701 H         1 <0>         0.1500
     63 H23         9.1267  -16.5097    3.9442 H         1 <0>         0.2279
     64 H24        11.3701  -16.5015    2.5809 H         1 <0>         0.2261
     65 H25        11.9012  -16.1011    0.0113 H         1 <0>         0.1378
     66 H26        10.5737  -15.5378   -1.0322 H         1 <0>         0.1239
     67 H27        10.0757  -13.1846   -1.2586 H         1 <0>         0.1084
     68 H28        10.9174  -10.9000   -1.1931 H         1 <0>         0.1260
     69 H29        12.6151   -9.2778   -0.3930 H         1 <0>         0.1286
     70 H30        14.6361   -8.8276    0.8896 H         1 <0>         0.1311
     71 H31        15.7973  -10.6330    2.0862 H         1 <0>         0.1330
     72 H32        14.9562  -12.9178    2.0196 H         1 <0>         0.1336
     73 H33        13.2529  -14.5380    1.2280 H         1 <0>         0.1333
     74 H34         5.1298   -2.6350    1.9673 H         1 <0>         0.3900
     75 H35         6.6893   -4.4511    0.6669 H         1 <0>         0.4342
     76 H36         7.3762  -15.4848    2.4176 H         1 <0>         0.4614
@<TRIPOS>BOND
     1    1    6 ar
     2    1    2 ar
     3    1   42 1
     4    2    3 ar
     5    2   43 1
     6    3    4 ar
     7    3   44 1
     8    4    5 ar
     9    4    7 1
    10    5    6 ar
    11    5   45 1
    12    6   46 1
    13    7    8 1
    14    8    9 1
    15    8   47 1
    16    8   48 1
    17    9   10 1
    18    9   11 1
    19    9   41 1
    20   11   12 1
    21   11   49 1
    22   11   50 1
    23   12   13 1
    24   12   51 1
    25   12   75 1
    26   13   14 1
    27   13   52 1
    28   13   53 1
    29   14   15 1
    30   14   54 1
    31   14   55 1
    32   15   20 ar
    33   15   16 ar
    34   16   17 ar
    35   16   56 1
    36   17   18 ar
    37   17   57 1
    38   18   19 ar
    39   18   21 1
    40   19   20 ar
    41   19   58 1
    42   20   59 1
    43   21   22 am
    44   21   60 1
    45   22   23 2
    46   22   24 1
    47   24   25 1
    48   24   61 1
    49   24   62 1
    50   25   29 1
    51   25   26 2
    52   26   27 1
    53   26   76 1
    54   27   28 2
    55   27   63 1
    56   28   29 1
    57   28   64 1
    58   29   30 1
    59   30   31 1
    60   30   65 1
    61   30   66 1
    62   31   40 ar
    63   31   32 ar
    64   32   33 ar
    65   32   67 1
    66   33   34 ar
    67   33   68 1
    68   34   39 ar
    69   34   35 ar
    70   35   36 ar
    71   35   69 1
    72   36   37 ar
    73   36   70 1
    74   37   38 ar
    75   37   71 1
    76   38   39 ar
    77   38   72 1
    78   39   40 ar
    79   40   73 1
    80   41   74 1
@<TRIPOS>MOLECULE
CHEMBL467103__1
   75    79     0     0     0
SMALL
USER_CHARGES

@<TRIPOS>ATOM
      1 C1          0.4312    1.3036    1.9791 C.ar      1 <0>        -0.1475
      2 C2          1.6298    1.9896    2.0479 C.ar      1 <0>        -0.0765
      3 C3          2.8257    1.3011    1.9835 C.ar      1 <0>        -0.1445
      4 C4          2.8234   -0.0798    1.8502 C.ar      1 <0>         0.1165
      5 C5          1.6195   -0.7658    1.7819 C.ar      1 <0>        -0.2095
      6 C6          0.4263   -0.0726    1.8462 C.ar      1 <0>        -0.0801
      7 O1          3.9986   -0.7594    1.7862 O.3       1 <0>        -0.3028
      8 C7          3.9201   -2.1796    1.6490 C.3       1 <0>         0.0296
      9 C8          5.3324   -2.7656    1.5944 C.3       1 <0>         0.0858
     10 H1          5.8956   -2.2823    0.7961 H         1 <0>         0.1359
     11 C9          5.2506   -4.2691    1.3228 C.3       1 <0>        -0.0418
     12 N1          6.6066   -4.8316    1.2704 N.4       1 <0>        -0.5036
     13 C10         6.5281   -6.2752    1.0097 C.3       1 <0>        -0.0076
     14 C11         7.9404   -6.8611    0.9550 C.3       1 <0>        -0.0970
     15 C12         7.8598   -8.3420    0.6876 C.ar      1 <0>        -0.1286
     16 C13         7.7754   -9.2303    1.7440 C.ar      1 <0>        -0.0855
     17 C14         7.7015  -10.5881    1.5022 C.ar      1 <0>        -0.1182
     18 C15         7.7115  -11.0609    0.1965 C.ar      1 <0>         0.1702
     19 C16         7.7959  -10.1662   -0.8622 C.ar      1 <0>        -0.1441
     20 C17         7.8647   -8.8093   -0.6139 C.ar      1 <0>        -0.0864
     21 N2          7.6372  -12.4359   -0.0518 N.am      1 <0>        -0.6786
     22 C18         6.9277  -13.2322    0.7723 C.2       1 <0>         0.5197
     23 O2          6.2781  -12.7465    1.6741 O.2       1 <0>        -0.4972
     24 C19         6.9413  -14.7259    0.5732 C.3       1 <0>        -0.0573
     25 C20         6.0748  -15.3799    1.6183 C.2       1 <0>         0.2172
     26 N3          6.4516  -15.7034    2.8251 N.2       1 <0>        -0.4737
     27 C21         5.4209  -16.2638    3.4751 C.2       1 <0>        -0.0221
     28 C22         4.3652  -16.2885    2.6394 C.2       1 <0>        -0.0447
     29 N4          4.7779  -15.7231    1.4631 N.pl3     1 <0>        -0.4432
     30 C23         3.9654  -15.5291    0.2597 C.3       1 <0>         0.1457
     31 C24         4.1693  -16.6920   -0.6770 C.ar      1 <0>        -0.1189
     32 C25         5.1095  -16.5918   -1.7010 C.ar      1 <0>        -0.1109
     33 C26         5.3180  -17.6231   -2.5642 C.ar      1 <0>        -0.0966
     34 C27         4.5762  -18.8085   -2.4234 C.ar      1 <0>        -0.0456
     35 C28         4.7640  -19.8949   -3.2950 C.ar      1 <0>        -0.1090
     36 C29         4.0277  -21.0272   -3.1279 C.ar      1 <0>        -0.1072
     37 C30         3.0878  -21.1275   -2.1037 C.ar      1 <0>        -0.1109
     38 C31         2.8790  -20.0959   -1.2408 C.ar      1 <0>        -0.1047
     39 C32         3.6206  -18.9105   -1.3819 C.ar      1 <0>        -0.0527
     40 C33         3.4368  -17.8262   -0.5068 C.ar      1 <0>        -0.0727
     41 O3          5.9894   -2.5422    2.8435 O.3       1 <0>        -0.5435
     42 H2         -0.5027    1.8433    2.0338 H         1 <0>         0.1296
     43 H3          1.6310    3.0646    2.1516 H         1 <0>         0.1353
     44 H4          3.7616    1.8374    2.0365 H         1 <0>         0.1333
     45 H5          1.6151   -1.8408    1.6778 H         1 <0>         0.1233
     46 H6         -0.5112   -0.6062    1.7930 H         1 <0>         0.1284
     47 H7          3.3858   -2.5981    2.5020 H         1 <0>         0.0763
     48 H8          3.3883   -2.4271    0.7303 H         1 <0>         0.0811
     49 H9          4.6874   -4.7523    2.1211 H         1 <0>         0.1398
     50 H10         4.7494   -4.4395    0.3700 H         1 <0>         0.1469
     51 H11         7.1280   -4.3843    0.5314 H         1 <0>         0.4308
     52 H12         5.9648   -6.7585    1.8080 H         1 <0>         0.1338
     53 H13         6.0269   -6.4456    0.0568 H         1 <0>         0.1341
     54 H14         8.5036   -6.3778    0.1567 H         1 <0>         0.0964
     55 H15         8.4415   -6.6907    1.9079 H         1 <0>         0.0965
     56 H16         7.7677   -8.8619    2.7592 H         1 <0>         0.1279
     57 H17         7.6363  -11.2814    2.3277 H         1 <0>         0.1418
     58 H18         7.8043  -10.5308   -1.8788 H         1 <0>         0.1328
     59 H19         7.9263   -8.1127   -1.4369 H         1 <0>         0.1287
     60 H20         8.0963  -12.8161   -0.8170 H         1 <0>         0.4166
     61 H21         6.5567  -14.9638   -0.4186 H         1 <0>         0.1116
     62 H22         7.9627  -15.0953    0.6650 H         1 <0>         0.1319
     63 H23         5.4351  -16.6308    4.4908 H         1 <0>         0.1723
     64 H24         3.3809  -16.6762    2.8569 H         1 <0>         0.1757
     65 H25         2.9133  -15.4668    0.5378 H         1 <0>         0.1050
     66 H26         4.2653  -14.6061   -0.2364 H         1 <0>         0.0947
     67 H27         5.6808  -15.6820   -1.8114 H         1 <0>         0.1194
     68 H28         6.0494  -17.5310   -3.3535 H         1 <0>         0.1319
     69 H29         5.4885  -19.8314   -4.0934 H         1 <0>         0.1302
     70 H30         4.1737  -21.8605   -3.7993 H         1 <0>         0.1276
     71 H31         2.5164  -22.0372   -1.9933 H         1 <0>         0.1276
     72 H32         2.1471  -20.1877   -0.4520 H         1 <0>         0.1293
     73 H33         2.7151  -17.8913    0.2941 H         1 <0>         0.1280
     74 H34         5.5425   -2.9450    3.6006 H         1 <0>         0.3903
     75 H35         7.0705   -4.6739    2.1524 H         1 <0>         0.4336
@<TRIPOS>BOND
     1    1    6 ar
     2    1    2 ar
     3    1   42 1
     4    2    3 ar
     5    2   43 1
     6    3    4 ar
     7    3   44 1
     8    4    5 ar
     9    4    7 1
    10    5    6 ar
    11    5   45 1
    12    6   46 1
    13    7    8 1
    14    8    9 1
    15    8   47 1
    16    8   48 1
    17    9   10 1
    18    9   11 1
    19    9   41 1
    20   11   12 1
    21   11   49 1
    22   11   50 1
    23   12   13 1
    24   12   51 1
    25   12   75 1
    26   13   14 1
    27   13   52 1
    28   13   53 1
    29   14   15 1
    30   14   54 1
    31   14   55 1
    32   15   20 ar
    33   15   16 ar
    34   16   17 ar
    35   16   56 1
    36   17   18 ar
    37   17   57 1
    38   18   19 ar
    39   18   21 1
    40   19   20 ar
    41   19   58 1
    42   20   59 1
    43   21   22 am
    44   21   60 1
    45   22   23 2
    46   22   24 1
    47   24   25 1
    48   24   61 1
    49   24   62 1
    50   25   29 1
    51   25   26 2
    52   26   27 1
    53   27   28 2
    54   27   63 1
    55   28   29 1
    56   28   64 1
    57   29   30 1
    58   30   31 1
    59   30   65 1
    60   30   66 1
    61   31   40 ar
    62   31   32 ar
    63   32   33 ar
    64   32   67 1
    65   33   34 ar
    66   33   68 1
    67   34   39 ar
    68   34   35 ar
    69   35   36 ar
    70   35   69 1
    71   36   37 ar
    72   36   70 1
    73   37   38 ar
    74   37   71 1
    75   38   39 ar
    76   38   72 1
    77   39   40 ar
    78   40   73 1
    79   41   74 1
@<TRIPOS>MOLECULE
CHEMBL1221636
   47    49     0     0     0
SMALL
USER_CHARGES

@<TRIPOS>ATOM
      1 C1         -0.0167    1.3781    0.0096 C.ar      1 <0>        -0.1197
      2 C2          1.1709    2.0855    0.0021 C.ar      1 <0>        -0.1167
      3 C3          2.3773    1.4107   -0.0130 C.ar      1 <0>        -0.1172
      4 C4          2.3960    0.0285   -0.0201 C.ar      1 <0>        -0.0920
      5 C5          1.2084   -0.6789   -0.0117 C.ar      1 <0>        -0.1175
      6 C6          0.0021   -0.0041    0.0020 C.ar      1 <0>        -0.1170
      7 C7          3.7112   -0.7071   -0.0376 C.3       1 <0>        -0.0791
      8 C8          4.1714   -0.9633    1.3989 C.3       1 <0>        -0.1121
      9 C9          5.5066   -1.7102    1.3812 C.3       1 <0>        -0.1494
     10 C10         5.9667   -1.9663    2.8177 C.3       1 <0>        -0.0106
     11 N1          7.2487   -2.6834    2.8007 N.4       1 <0>        -0.5053
     12 C11         7.6906   -2.9294    4.1799 C.3       1 <0>        -0.0454
     13 C12         9.0258   -3.6762    4.1622 C.3       1 <0>         0.1623
     14 H1          9.7719   -3.0743    3.6435 H         1 <0>         0.1155
     15 C13         9.4790   -3.9285    5.5771 C.ar      1 <0>        -0.2346
     16 C14         9.1964   -5.1357    6.1927 C.ar      1 <0>        -0.0379
     17 C15         9.6228   -5.3459    7.4925 C.ar      1 <0>        -0.2398
     18 C16        10.3214   -4.3764    8.1808 C.ar      1 <0>         0.3003
     19 C17        10.6222   -3.1393    7.5778 C.ar      1 <0>        -0.0292
     20 C18        10.1799   -2.9631    6.2599 C.ar      1 <0>        -0.0475
     21 S1         10.7448   -1.3274    5.8584 S.3       1 <0>        -0.1198
     22 C19        11.5340   -0.9517    7.4152 C.2       1 <0>         0.5380
     23 O1         12.1175    0.0632    7.7486 O.2       1 <0>        -0.4755
     24 N2         11.3104   -2.0706    8.1322 N.am      1 <0>        -0.6197
     25 H2         11.6446   -2.1338    9.0406 H         1 <0>         0.4156
     26 O2         10.7244   -4.6173    9.4569 O.3       1 <0>        -0.6860
     27 O3          8.8648   -4.9237    3.4839 O.3       1 <0>        -0.5549
     28 H3         -0.9591    1.9053    0.0259 H         1 <0>         0.1235
     29 H4          1.1563    3.1654    0.0076 H         1 <0>         0.1237
     30 H5          3.3051    1.9634   -0.0196 H         1 <0>         0.1210
     31 H6          1.2231   -1.7588   -0.0176 H         1 <0>         0.1207
     32 H7         -0.9258   -0.5567    0.0082 H         1 <0>         0.1235
     33 H8          3.5884   -1.6586   -0.5549 H         1 <0>         0.0755
     34 H9          4.4573   -0.1052   -0.5563 H         1 <0>         0.0758
     35 H10         4.2941   -0.0118    1.9163 H         1 <0>         0.0756
     36 H11         3.4252   -1.5652    1.9176 H         1 <0>         0.0752
     37 H12         5.3838   -2.6617    0.8639 H         1 <0>         0.0874
     38 H13         6.2527   -1.1082    0.8625 H         1 <0>         0.0878
     39 H14         6.0895   -1.0148    3.3350 H         1 <0>         0.1308
     40 H15         5.2206   -2.5682    3.3364 H         1 <0>         0.1299
     41 H16         7.1351   -3.5642    2.3218 H         1 <0>         0.4282
     42 H17         7.8133   -1.9778    4.6972 H         1 <0>         0.1404
     43 H18         6.9444   -3.5313    4.6986 H         1 <0>         0.1358
     44 H19         8.6498   -5.9036    5.6656 H         1 <0>         0.1130
     45 H20         9.4041   -6.2862    7.9767 H         1 <0>         0.1175
     46 H21         8.2143   -5.5118    3.8914 H         1 <0>         0.3836
     47 H22         7.9394   -2.1262    2.3205 H         1 <0>         0.4265
@<TRIPOS>BOND
     1    1    6 ar
     2    1    2 ar
     3    1   28 1
     4    2    3 ar
     5    2   29 1
     6    3    4 ar
     7    3   30 1
     8    4    5 ar
     9    4    7 1
    10    5    6 ar
    11    5   31 1
    12    6   32 1
    13    7    8 1
    14    7   33 1
    15    7   34 1
    16    8    9 1
    17    8   35 1
    18    8   36 1
    19    9   10 1
    20    9   37 1
    21    9   38 1
    22   10   11 1
    23   10   39 1
    24   10   40 1
    25   11   12 1
    26   11   41 1
    27   11   47 1
    28   12   13 1
    29   12   42 1
    30   12   43 1
    31   13   14 1
    32   13   15 1
    33   13   27 1
    34   15   20 ar
    35   15   16 ar
    36   16   17 ar
    37   16   44 1
    38   17   18 ar
    39   17   45 1
    40   18   19 ar
    41   18   26 1
    42   19   24 1
    43   19   20 ar
    44   20   21 1
    45   21   22 1
    46   22   23 2
    47   22   24 am
    48   24   25 1
    49   27   46 1
@<TRIPOS>MOLECULE
CHEMBL1221637
   47    50     0     0     0
SMALL
USER_CHARGES

@<TRIPOS>ATOM
      1 C1         -0.0187    1.5258    0.0104 C.3       1 <0>        -0.1783
      2 C2          0.0021   -0.0041    0.0020 C.3       1 <0>         0.0782
      3 H1         -1.0205   -0.3814    0.0098 H         1 <0>         0.1441
      4 C3          0.7309   -0.5033    1.2229 C.ar      1 <0>        -0.1397
      5 C4          2.1246   -0.5094    1.2357 C.ar      1 <0>        -0.1335
      6 C5          2.8135   -0.9540    2.3220 C.ar      1 <0>        -0.0780
      7 C6          2.1121   -1.4142    3.4495 C.ar      1 <0>        -0.0428
      8 C7          2.7886   -1.8803    4.5898 C.ar      1 <0>        -0.1090
      9 C8          2.0761   -2.3180    5.6635 C.ar      1 <0>        -0.1005
     10 C9          0.6824   -2.3116    5.6508 C.ar      1 <0>        -0.1053
     11 C10        -0.0064   -1.8674    4.5644 C.ar      1 <0>        -0.1043
     12 C11         0.6950   -1.4076    3.4367 C.ar      1 <0>        -0.0526
     13 C12         0.0185   -0.9362    2.2986 C.ar      1 <0>        -0.0599
     14 N1          0.6897   -0.4778   -1.2066 N.4       1 <0>        -0.5028
     15 C13        -0.0856   -0.0931   -2.3936 C.3       1 <0>        -0.0493
     16 C14         0.6305   -0.5866   -3.6524 C.3       1 <0>         0.1632
     17 H2          0.7239   -1.6719   -3.6155 H         1 <0>         0.1156
     18 C15        -0.1648   -0.1919   -4.8701 C.ar      1 <0>        -0.2330
     19 C16         0.1454    0.9693   -5.5566 C.ar      1 <0>        -0.0378
     20 C17        -0.5980    1.3121   -6.6725 C.ar      1 <0>        -0.2398
     21 C18        -1.6380    0.5187   -7.1094 C.ar      1 <0>         0.3004
     22 C19        -1.9745   -0.6681   -6.4291 C.ar      1 <0>        -0.0293
     23 C20        -1.1977   -0.9865   -5.3072 C.ar      1 <0>        -0.0472
     24 S1         -1.9059   -2.5157   -4.7451 S.3       1 <0>        -0.1191
     25 C21        -3.1710   -2.6740   -5.9950 C.2       1 <0>         0.5377
     26 O1         -3.9998   -3.5547   -6.1333 O.2       1 <0>        -0.4760
     27 N2         -2.9844   -1.5664   -6.7396 N.am      1 <0>        -0.6198
     28 H3         -3.5541   -1.4021   -7.5073 H         1 <0>         0.4153
     29 O2         -2.3473    0.8866   -8.2095 O.3       1 <0>        -0.6866
     30 O3          1.9312    0.0013   -3.7219 O.3       1 <0>        -0.5545
     31 H4          1.0039    1.9031    0.0027 H         1 <0>         0.0820
     32 H5         -0.5459    1.8868   -0.8726 H         1 <0>         0.0874
     33 H6         -0.5289    1.8773    0.9072 H         1 <0>         0.1036
     34 H7          2.6660   -0.1563    0.3705 H         1 <0>         0.1213
     35 H8          3.8935   -0.9536    2.3173 H         1 <0>         0.1373
     36 H9          3.8683   -1.8914    4.6138 H         1 <0>         0.1336
     37 H10         2.5984   -2.6760    6.5384 H         1 <0>         0.1308
     38 H11         0.1410   -2.6648    6.5160 H         1 <0>         0.1309
     39 H12        -1.0864   -1.8686    4.5686 H         1 <0>         0.1334
     40 H13        -1.0612   -0.9213    2.2762 H         1 <0>         0.1376
     41 H14         1.6080   -0.0627   -1.2556 H         1 <0>         0.4248
     42 H15        -1.0777   -0.5415   -2.3406 H         1 <0>         0.1416
     43 H16        -0.1790    0.9922   -2.4305 H         1 <0>         0.1384
     44 H17         0.9570    1.6002   -5.2254 H         1 <0>         0.1130
     45 H18        -0.3595    2.2175   -7.2109 H         1 <0>         0.1173
     46 H19         1.9246    0.9676   -3.7575 H         1 <0>         0.3832
     47 H20         0.7761   -1.4825   -1.1724 H         1 <0>         0.4285
@<TRIPOS>BOND
     1    1    2 1
     2    1   31 1
     3    1   32 1
     4    1   33 1
     5    2    3 1
     6    2    4 1
     7    2   14 1
     8    4   13 ar
     9    4    5 ar
    10    5    6 ar
    11    5   34 1
    12    6    7 ar
    13    6   35 1
    14    7   12 ar
    15    7    8 ar
    16    8    9 ar
    17    8   36 1
    18    9   10 ar
    19    9   37 1
    20   10   11 ar
    21   10   38 1
    22   11   12 ar
    23   11   39 1
    24   12   13 ar
    25   13   40 1
    26   14   15 1
    27   14   41 1
    28   14   47 1
    29   15   16 1
    30   15   42 1
    31   15   43 1
    32   16   17 1
    33   16   18 1
    34   16   30 1
    35   18   23 ar
    36   18   19 ar
    37   19   20 ar
    38   19   44 1
    39   20   21 ar
    40   20   45 1
    41   21   22 ar
    42   21   29 1
    43   22   27 1
    44   22   23 ar
    45   23   24 1
    46   24   25 1
    47   25   26 2
    48   25   27 am
    49   27   28 1
    50   30   46 1
@<TRIPOS>MOLECULE
CHEMBL1221637__1
   46    49     0     0     0
SMALL
USER_CHARGES

@<TRIPOS>ATOM
      1 C1         -0.0187    1.5258    0.0104 C.3       1 <0>        -0.1776
      2 C2          0.0021   -0.0041    0.0020 C.3       1 <0>         0.1182
      3 H1          0.5123   -0.3556   -0.8948 H         1 <0>         0.0868
      4 C3         -1.4117   -0.5257    0.0127 C.ar      1 <0>        -0.0532
      5 C4         -2.1192   -0.5668    1.2129 C.ar      1 <0>        -0.0877
      6 C5         -3.3972   -1.0324    1.2573 C.ar      1 <0>        -0.1123
      7 C6         -4.0161   -1.4787    0.0772 C.ar      1 <0>        -0.0543
      8 C7         -5.3344   -1.9657    0.0835 C.ar      1 <0>        -0.1059
      9 C8         -5.9014   -2.3891   -1.0790 C.ar      1 <0>        -0.1227
     10 C9         -5.1941   -2.3477   -2.2792 C.ar      1 <0>        -0.1216
     11 C10        -3.9159   -1.8826   -2.3235 C.ar      1 <0>        -0.1055
     12 C11        -3.2969   -1.4366   -1.1433 C.ar      1 <0>        -0.0482
     13 C12        -1.9805   -0.9444   -1.1506 C.ar      1 <0>        -0.1082
     14 N1          0.7126   -0.4907    1.1921 N.3       1 <0>        -0.6762
     15 C13         2.1624   -0.5325    0.9593 C.3       1 <0>         0.0342
     16 C14         2.8665   -1.0431    2.2180 C.3       1 <0>         0.1759
     17 H2          2.5074   -2.0448    2.4542 H         1 <0>         0.1025
     18 C15         4.3539   -1.0861    1.9791 C.ar      1 <0>        -0.2015
     19 C16         5.1518   -0.0250    2.3710 C.ar      1 <0>        -0.0460
     20 C17         6.5153   -0.0861    2.1422 C.ar      1 <0>        -0.2452
     21 C18         7.0890   -1.1821    1.5328 C.ar      1 <0>         0.2914
     22 C19         6.3000   -2.2753    1.1242 C.ar      1 <0>        -0.0410
     23 C20         4.9249   -2.1815    1.3763 C.ar      1 <0>        -0.0470
     24 S1          4.2915   -3.7156    0.7427 S.3       1 <0>        -0.0955
     25 C21         5.8401   -4.4093    0.1872 C.2       1 <0>         0.5253
     26 O1          6.0455   -5.4817   -0.3507 O.2       1 <0>        -0.4945
     27 N2          6.7224   -3.4410    0.5031 N.am      1 <0>        -0.6194
     28 H3          7.6638   -3.5657    0.3051 H         1 <0>         0.4086
     29 O2          8.4323   -1.2077    1.3234 O.3       1 <0>        -0.7147
     30 O3          2.5847   -0.1661    3.3104 O.3       1 <0>        -0.5574
     31 H4          1.0039    1.9031    0.0027 H         1 <0>         0.0605
     32 H5         -0.5459    1.8868   -0.8726 H         1 <0>         0.0614
     33 H6         -0.5289    1.8773    0.9072 H         1 <0>         0.0593
     34 H7         -1.6459   -0.2244    2.1213 H         1 <0>         0.1237
     35 H8         -3.9329   -1.0590    2.1947 H         1 <0>         0.1249
     36 H9         -5.8945   -2.0040    1.0061 H         1 <0>         0.1241
     37 H10        -6.9145   -2.7632   -1.0713 H         1 <0>         0.1195
     38 H11        -5.6673   -2.6902   -3.1876 H         1 <0>         0.1198
     39 H12        -3.3798   -1.8567   -3.2608 H         1 <0>         0.1248
     40 H13        -1.4219   -0.9023   -2.0739 H         1 <0>         0.1246
     41 H14         0.4922    0.0720    2.0001 H         1 <0>         0.3453
     42 H15         2.3774   -1.2015    0.1260 H         1 <0>         0.0827
     43 H16         2.5215    0.4691    0.7231 H         1 <0>         0.0348
     44 H17         4.7157    0.8397    2.8490 H         1 <0>         0.1102
     45 H18         7.1414    0.7398    2.4460 H         1 <0>         0.1103
     46 H19         2.8774    0.7446    3.1693 H         1 <0>         0.3665
@<TRIPOS>BOND
     1    1    2 1
     2    1   31 1
     3    1   32 1
     4    1   33 1
     5    2    3 1
     6    2    4 1
     7    2   14 1
     8    4   13 ar
     9    4    5 ar
    10    5    6 ar
    11    5   34 1
    12    6    7 ar
    13    6   35 1
    14    7   12 ar
    15    7    8 ar
    16    8    9 ar
    17    8   36 1
    18    9   10 ar
    19    9   37 1
    20   10   11 ar
    21   10   38 1
    22   11   12 ar
    23   11   39 1
    24   12   13 ar
    25   13   40 1
    26   14   15 1
    27   14   41 1
    28   15   16 1
    29   15   42 1
    30   15   43 1
    31   16   17 1
    32   16   18 1
    33   16   30 1
    34   18   23 ar
    35   18   19 ar
    36   19   20 ar
    37   19   44 1
    38   20   21 ar
    39   20   45 1
    40   21   22 ar
    41   21   29 1
    42   22   27 1
    43   22   23 ar
    44   23   24 1
    45   24   25 1
    46   25   26 2
    47   25   27 am
    48   27   28 1
    49   30   46 1
@<TRIPOS>MOLECULE
CHEMBL1089052
   55    57     0     0     0
SMALL
USER_CHARGES

@<TRIPOS>ATOM
      1 C1          5.8731  -11.1005    1.4890 C.3       1 <0>         0.0888
      2 N1          4.8095  -10.3241    2.1310 N.pl3     1 <0>        -0.6852
      3 C2          4.5424   -9.0317    1.7072 C.2       1 <0>         0.3217
      4 N2          3.6386   -8.1914    2.1645 N.2       1 <0>        -0.5742
      5 C3          3.5088   -6.9820    1.6480 C.2       1 <0>         0.1196
      6 C4          4.3440   -6.6525    0.6337 C.2       1 <0>        -0.2722
      7 S1          5.2998   -8.1534    0.4877 S.3       1 <0>         0.0913
      8 C5          2.4769   -6.0126    2.1642 C.3       1 <0>        -0.0641
      9 C6          1.1144   -6.6544    2.1123 C.2       1 <0>         0.5212
     10 O1          0.9932   -7.7875    1.6970 O.2       1 <0>        -0.4931
     11 N3          0.0305   -5.9692    2.5273 N.am      1 <0>        -0.6828
     12 C7         -1.2452   -6.5275    2.3895 C.ar      1 <0>         0.1701
     13 C8         -2.3323   -5.7150    2.0953 C.ar      1 <0>        -0.1446
     14 C9         -3.5901   -6.2691    1.9599 C.ar      1 <0>        -0.0880
     15 C10        -3.7676   -7.6314    2.1171 C.ar      1 <0>        -0.1301
     16 C11        -2.6873   -8.4432    2.4105 C.ar      1 <0>        -0.0881
     17 C12        -1.4259   -7.8961    2.5410 C.ar      1 <0>        -0.1188
     18 C13        -5.1415   -8.2327    1.9687 C.3       1 <0>        -0.0961
     19 C14        -5.3695   -8.6296    0.5088 C.3       1 <0>        -0.0078
     20 N4         -6.7088   -9.2157    0.3641 N.4       1 <0>        -0.5052
     21 C15        -6.9277   -9.5968   -1.0376 C.3       1 <0>        -0.0427
     22 C16        -8.3226  -10.2072   -1.1882 C.3       1 <0>         0.1417
     23 H1         -9.0735   -9.4760   -0.8889 H         1 <0>         0.1339
     24 C17        -8.5472  -10.5982   -2.6262 C.ar      1 <0>        -0.2003
     25 C18        -9.1908   -9.7319   -3.4970 C.ar      1 <0>        -0.0549
     26 C19        -9.3756  -10.1337   -4.8108 C.ar      1 <0>        -0.1642
     27 C20        -8.9154  -11.3756   -5.2064 C.ar      1 <0>         0.1223
     28 N5         -8.3078  -12.1737   -4.3506 N.ar      1 <0>        -0.4749
     29 C21        -8.1093  -11.8221   -3.0950 C.ar      1 <0>         0.1173
     30 O2         -8.4279  -11.3653   -0.3577 O.3       1 <0>        -0.5462
     31 H2          6.8244  -10.5820    1.6090 H         1 <0>         0.0643
     32 H3          5.9348  -12.0850    1.9526 H         1 <0>         0.0928
     33 H4          5.6515  -11.2119    0.4276 H         1 <0>         0.0629
     34 H5          4.2922  -10.7145    2.8528 H         1 <0>         0.4152
     35 H6          4.4147   -5.7335    0.0708 H         1 <0>         0.1931
     36 H7          2.7132   -5.7445    3.1939 H         1 <0>         0.1148
     37 H8          2.4797   -5.1153    1.5453 H         1 <0>         0.1162
     38 H9          0.1347   -5.0891    2.9215 H         1 <0>         0.4152
     39 H10        -2.1943   -4.6508    1.9728 H         1 <0>         0.1322
     40 H11        -4.4360   -5.6377    1.7315 H         1 <0>         0.1277
     41 H12        -2.8292   -9.5068    2.5329 H         1 <0>         0.1263
     42 H13        -0.5816   -8.5313    2.7651 H         1 <0>         0.1454
     43 H14        -5.2219   -9.1161    2.6022 H         1 <0>         0.0955
     44 H15        -5.8924   -7.5014    2.2679 H         1 <0>         0.0954
     45 H16        -5.2892   -7.7463   -0.1247 H         1 <0>         0.1334
     46 H17        -4.6187   -9.3609    0.2095 H         1 <0>         0.1331
     47 H18        -6.7832  -10.0334    0.9506 H         1 <0>         0.4325
     48 H19        -6.8474   -8.7134   -1.6711 H         1 <0>         0.1444
     49 H20        -6.1769  -10.3281   -1.3368 H         1 <0>         0.1374
     50 H21        -9.5402   -8.7673   -3.1595 H         1 <0>         0.1411
     51 H22        -9.8731   -9.4847   -5.5163 H         1 <0>         0.1472
     52 H23        -9.0554  -11.6961   -6.2282 H         1 <0>         0.1671
     53 H24        -7.6029  -12.5004   -2.4244 H         1 <0>         0.1530
     54 H25        -7.7884  -12.0596   -0.5679 H         1 <0>         0.3901
     55 H26        -7.4039   -8.5388    0.6412 H         1 <0>         0.4293
@<TRIPOS>BOND
     1    1    2 1
     2    1   31 1
     3    1   32 1
     4    1   33 1
     5    2    3 1
     6    2   34 1
     7    3    7 1
     8    3    4 2
     9    4    5 1
    10    5    6 2
    11    5    8 1
    12    6    7 1
    13    6   35 1
    14    8    9 1
    15    8   36 1
    16    8   37 1
    17    9   10 2
    18    9   11 am
    19   11   12 1
    20   11   38 1
    21   12   17 ar
    22   12   13 ar
    23   13   14 ar
    24   13   39 1
    25   14   15 ar
    26   14   40 1
    27   15   16 ar
    28   15   18 1
    29   16   17 ar
    30   16   41 1
    31   17   42 1
    32   18   19 1
    33   18   43 1
    34   18   44 1
    35   19   20 1
    36   19   45 1
    37   19   46 1
    38   20   21 1
    39   20   47 1
    40   20   55 1
    41   21   22 1
    42   21   48 1
    43   21   49 1
    44   22   23 1
    45   22   24 1
    46   22   30 1
    47   24   29 ar
    48   24   25 ar
    49   25   26 ar
    50   25   50 1
    51   26   27 ar
    52   26   51 1
    53   27   28 ar
    54   27   52 1
    55   28   29 ar
    56   29   53 1
    57   30   54 1
@<TRIPOS>MOLECULE
CHEMBL1089052__1
   56    58     0     0     0
SMALL
USER_CHARGES

@<TRIPOS>ATOM
      1 C1          7.9284   -7.9623   -5.0071 C.3       1 <0>         0.0610
      2 N1          6.8453   -6.9780   -4.9426 N.pl3     1 <0>        -0.6350
      3 C2          5.7660   -7.1893   -4.0990 C.cat     1 <0>         0.3061
      4 N2          4.7099   -6.4258   -3.9151 N.pl3     1 <0>        -0.5451
      5 C3          3.7582   -6.7713   -3.0659 C.2       1 <0>         0.0902
      6 C4          3.9212   -7.9397   -2.4002 C.2       1 <0>        -0.1789
      7 S1          5.4842   -8.4881   -3.0665 S.3       1 <0>         0.3595
      8 C5          2.5455   -5.9037   -2.8475 C.3       1 <0>        -0.0911
      9 C6          1.4208   -6.3811   -3.7297 C.2       1 <0>         0.5171
     10 O1          1.5876   -7.3322   -4.4635 O.2       1 <0>        -0.5112
     11 N3          0.2297   -5.7511   -3.7031 N.am      1 <0>        -0.6660
     12 C7         -0.7831   -6.1318   -4.5904 C.ar      1 <0>         0.1492
     13 C8         -1.6436   -5.1766   -5.1154 C.ar      1 <0>        -0.1346
     14 C9         -2.6422   -5.5556   -5.9909 C.ar      1 <0>        -0.0871
     15 C10        -2.7857   -6.8846   -6.3450 C.ar      1 <0>        -0.1132
     16 C11        -1.9307   -7.8382   -5.8236 C.ar      1 <0>        -0.0891
     17 C12        -0.9262   -7.4648   -4.9524 C.ar      1 <0>        -0.1148
     18 C13        -3.8765   -7.2946   -7.3006 C.3       1 <0>        -0.1027
     19 C14        -3.3472   -7.2344   -8.7348 C.3       1 <0>        -0.0062
     20 N4         -4.4104   -7.6341   -9.6663 N.4       1 <0>        -0.5058
     21 C15        -3.9022   -7.5763  -11.0434 C.3       1 <0>        -0.0422
     22 C16        -5.0096   -7.9926  -12.0136 C.3       1 <0>         0.1417
     23 H1         -5.8569   -7.3147  -11.9103 H         1 <0>         0.1346
     24 C17        -4.4882   -7.9333  -13.4263 C.ar      1 <0>        -0.2023
     25 C18        -4.6869   -6.8005  -14.2011 C.ar      1 <0>        -0.0548
     26 C19        -4.1898   -6.7907  -15.4951 C.ar      1 <0>        -0.1634
     27 C20        -3.5174   -7.9025  -15.9668 C.ar      1 <0>         0.1238
     28 N5         -3.3474   -8.9628  -15.2017 N.ar      1 <0>        -0.4746
     29 C21        -3.8012   -9.0049  -13.9641 C.ar      1 <0>         0.1168
     30 O2         -5.4274   -9.3262  -11.7156 O.3       1 <0>        -0.5451
     31 H2          8.3815   -8.0690   -4.0215 H         1 <0>         0.0932
     32 H3          7.5271   -8.9235   -5.3285 H         1 <0>         0.0918
     33 H4          8.6823   -7.6269   -5.7192 H         1 <0>         0.1219
     34 H5          6.8834   -6.1783   -5.4904 H         1 <0>         0.4323
     35 H6          3.2803   -8.4114   -1.6700 H         1 <0>         0.2368
     36 H7          2.2389   -5.9641   -1.8032 H         1 <0>         0.1523
     37 H8          2.7885   -4.8705   -3.0956 H         1 <0>         0.1287
     38 H9          0.0744   -5.0337   -3.0689 H         1 <0>         0.4211
     39 H10        -1.5323   -4.1385   -4.8390 H         1 <0>         0.1348
     40 H11        -3.3120   -4.8132   -6.3992 H         1 <0>         0.1331
     41 H12        -2.0456   -8.8754   -6.1018 H         1 <0>         0.1311
     42 H13        -0.2555   -8.2094   -4.5496 H         1 <0>         0.1441
     43 H14        -4.1952   -8.3119   -7.0733 H         1 <0>         0.0994
     44 H15        -4.7238   -6.6167   -7.1972 H         1 <0>         0.0996
     45 H16        -3.0284   -6.2171   -8.9621 H         1 <0>         0.1329
     46 H17        -2.4998   -7.9123   -8.8382 H         1 <0>         0.1322
     47 H18        -4.7054   -8.5758   -9.4559 H         1 <0>         0.4336
     48 H19        -3.5835   -6.5590  -11.2707 H         1 <0>         0.1443
     49 H20        -3.0549   -8.2542  -11.1467 H         1 <0>         0.1370
     50 H21        -5.2167   -5.9463  -13.8059 H         1 <0>         0.1412
     51 H22        -4.3265   -5.9255  -16.1269 H         1 <0>         0.1481
     52 H23        -3.1271   -7.9028  -16.9738 H         1 <0>         0.1681
     53 H24        -3.6381   -9.8889  -13.3655 H         1 <0>         0.1525
     54 H25        -4.7228   -9.9845  -11.7876 H         1 <0>         0.3898
     55 H26        -5.1948   -7.0066   -9.5707 H         1 <0>         0.4309
     56 H27         4.6289   -5.5959   -4.4107 H         1 <0>         0.4324
@<TRIPOS>BOND
     1    1    2 1
     2    1   31 1
     3    1   32 1
     4    1   33 1
     5    2    3 1
     6    2   34 1
     7    3    7 1
     8    3    4 2
     9    4    5 1
    10    4   56 1
    11    5    6 2
    12    5    8 1
    13    6    7 1
    14    6   35 1
    15    8    9 1
    16    8   36 1
    17    8   37 1
    18    9   10 2
    19    9   11 am
    20   11   12 1
    21   11   38 1
    22   12   17 ar
    23   12   13 ar
    24   13   14 ar
    25   13   39 1
    26   14   15 ar
    27   14   40 1
    28   15   16 ar
    29   15   18 1
    30   16   17 ar
    31   16   41 1
    32   17   42 1
    33   18   19 1
    34   18   43 1
    35   18   44 1
    36   19   20 1
    37   19   45 1
    38   19   46 1
    39   20   21 1
    40   20   47 1
    41   20   55 1
    42   21   22 1
    43   21   48 1
    44   21   49 1
    45   22   23 1
    46   22   24 1
    47   22   30 1
    48   24   29 ar
    49   24   25 ar
    50   25   26 ar
    51   25   50 1
    52   26   27 ar
    53   26   51 1
    54   27   28 ar
    55   27   52 1
    56   28   29 ar
    57   29   53 1
    58   30   54 1
@<TRIPOS>MOLECULE
CHEMBL1221635
   45    48     0     0     0
SMALL
USER_CHARGES

@<TRIPOS>ATOM
      1 C1          2.3245   -4.1692    2.0410 C.ar      1 <0>        -0.0913
      2 C2          2.6242   -3.0330    2.7696 C.ar      1 <0>        -0.1096
      3 C3          3.0217   -1.8853    2.1159 C.ar      1 <0>        -0.1239
      4 C4          3.1251   -1.8615    0.7309 C.ar      1 <0>        -0.1361
      5 C5          2.8316   -2.9942    0.0058 C.ar      1 <0>        -0.0390
      6 C6          2.4279   -4.1480    0.6657 C.ar      1 <0>        -0.1144
      7 C7          2.9372   -3.0455   -1.4960 C.3       1 <0>        -0.0951
      8 C8          2.9626   -1.6350   -2.0813 C.3       1 <0>        -0.1143
      9 C9          4.0370   -0.8252   -1.3461 C.3       1 <0>        -0.1442
     10 C10         3.5571   -0.5727    0.0818 C.3       1 <0>         0.0831
     11 H1          2.7151    0.1192    0.0610 H         1 <0>         0.1441
     12 N1          4.6510    0.0201    0.8628 N.4       1 <0>        -0.5044
     13 C11         4.9880    1.3391    0.3107 C.3       1 <0>        -0.0484
     14 C12         6.0356    2.0117    1.2000 C.3       1 <0>         0.1630
     15 H2          6.9324    1.3932    1.2364 H         1 <0>         0.1158
     16 C13         6.3813    3.3648    0.6337 C.ar      1 <0>        -0.2331
     17 C14         5.7431    4.4992    1.1048 C.ar      1 <0>        -0.0377
     18 C15         6.0766    5.7316    0.5706 C.ar      1 <0>        -0.2396
     19 C16         7.0302    5.8468   -0.4189 C.ar      1 <0>         0.3004
     20 C17         7.6947    4.7084   -0.9162 C.ar      1 <0>        -0.0291
     21 C18         7.3358    3.4785   -0.3489 C.ar      1 <0>        -0.0472
     22 S1          8.3709    2.3186   -1.2086 S.3       1 <0>        -0.1188
     23 C19         9.2252    3.4834   -2.2578 C.2       1 <0>         0.5376
     24 O1         10.0853    3.2693   -3.0922 O.2       1 <0>        -0.4760
     25 N2          8.6692    4.6581   -1.9015 N.am      1 <0>        -0.6196
     26 H3          8.9621    5.4777   -2.3297 H         1 <0>         0.4154
     27 O2          7.3324    7.0738   -0.9210 O.3       1 <0>        -0.6865
     28 O3          5.5107    2.1677    2.5199 O.3       1 <0>        -0.5549
     29 H4          2.0148   -5.0715    2.5473 H         1 <0>         0.1340
     30 H5          2.5470   -3.0440    3.8468 H         1 <0>         0.1345
     31 H6          3.2542   -0.9977    2.6856 H         1 <0>         0.1213
     32 H7          2.1928   -5.0357    0.0972 H         1 <0>         0.1334
     33 H8          3.8532   -3.5667   -1.7742 H         1 <0>         0.0892
     34 H9          2.0804   -3.5862   -1.8982 H         1 <0>         0.0891
     35 H10         3.2018   -1.6828   -3.1436 H         1 <0>         0.0913
     36 H11         1.9896   -1.1633   -1.9445 H         1 <0>         0.0776
     37 H12         4.9706   -1.3874   -1.3256 H         1 <0>         0.0911
     38 H13         4.1919    0.1262   -1.8549 H         1 <0>         0.0985
     39 H14         4.3614    0.1218    1.8239 H         1 <0>         0.4252
     40 H15         5.3884    1.2201   -0.6961 H         1 <0>         0.1427
     41 H16         4.0912    1.9576    0.2743 H         1 <0>         0.1367
     42 H17         4.9941    4.4234    1.8792 H         1 <0>         0.1129
     43 H18         5.5808    6.6191    0.9350 H         1 <0>         0.1173
     44 H19         4.7101    2.7082    2.5634 H         1 <0>         0.3835
     45 H20         5.4606   -0.5804    0.8172 H         1 <0>         0.4257
@<TRIPOS>BOND
     1    1    6 ar
     2    1    2 ar
     3    1   29 1
     4    2    3 ar
     5    2   30 1
     6    3    4 ar
     7    3   31 1
     8    4   10 1
     9    4    5 ar
    10    5    6 ar
    11    5    7 1
    12    6   32 1
    13    7    8 1
    14    7   33 1
    15    7   34 1
    16    8    9 1
    17    8   35 1
    18    8   36 1
    19    9   10 1
    20    9   37 1
    21    9   38 1
    22   10   11 1
    23   10   12 1
    24   12   13 1
    25   12   39 1
    26   12   45 1
    27   13   14 1
    28   13   40 1
    29   13   41 1
    30   14   15 1
    31   14   16 1
    32   14   28 1
    33   16   21 ar
    34   16   17 ar
    35   17   18 ar
    36   17   42 1
    37   18   19 ar
    38   18   43 1
    39   19   20 ar
    40   19   27 1
    41   20   25 1
    42   20   21 ar
    43   21   22 1
    44   22   23 1
    45   23   24 2
    46   23   25 am
    47   25   26 1
    48   28   44 1
@<TRIPOS>MOLECULE
CHEMBL72
   43    45     0     0     0
SMALL
USER_CHARGES

@<TRIPOS>ATOM
      1 C1         -5.6811    1.3607   -0.3895 C.3       1 <0>        -0.0475
      2 N1         -5.6577   -0.0983   -0.2206 N.4       1 <0>        -0.5096
      3 C2         -4.2653   -0.5656   -0.1914 C.3       1 <0>        -0.0084
      4 C3         -4.2409   -2.0853   -0.0155 C.3       1 <0>        -0.1794
      5 C4         -2.7907   -2.5720    0.0149 C.3       1 <0>         0.1486
      6 N2         -2.7680   -4.0325    0.1272 N.pl3     1 <0>        -0.6107
      7 C5         -2.6913   -4.8424   -1.0108 C.ar      1 <0>         0.1751
      8 C6         -1.6220   -4.6466   -1.8788 C.ar      1 <0>        -0.1410
      9 C7         -1.4736   -5.4397   -2.9971 C.ar      1 <0>        -0.1023
     10 C8         -2.4002   -6.4363   -3.2444 C.ar      1 <0>        -0.1264
     11 C9         -3.4655   -6.6206   -2.3933 C.ar      1 <0>        -0.1102
     12 C10        -3.6460   -5.8156   -1.2664 C.ar      1 <0>        -0.0995
     13 C11        -4.9119   -6.0915   -0.4880 C.3       1 <0>        -0.0689
     14 C12        -5.1138   -5.1475    0.6844 C.3       1 <0>        -0.0774
     15 C13        -4.0023   -5.2798    1.6948 C.ar      1 <0>        -0.0996
     16 C14        -2.8165   -4.6605    1.3756 C.ar      1 <0>         0.1518
     17 C15        -1.7436   -4.6795    2.2507 C.ar      1 <0>        -0.1184
     18 C16        -1.8773   -5.3599    3.4502 C.ar      1 <0>        -0.1095
     19 C17        -3.0597   -6.0065    3.7610 C.ar      1 <0>        -0.1164
     20 C18        -4.1454   -5.9689    2.8764 C.ar      1 <0>        -0.1028
     21 H1         -6.7143    1.7075   -0.4111 H         1 <0>         0.1266
     22 H2         -5.1573    1.8313    0.4426 H         1 <0>         0.1238
     23 H3         -5.1891    1.6261   -1.3252 H         1 <0>         0.1238
     24 H4         -6.1131   -0.3440    0.6456 H         1 <0>         0.4303
     25 H5         -3.7733   -0.3002   -1.1272 H         1 <0>         0.1329
     26 H6         -3.7415   -0.0951    0.6406 H         1 <0>         0.1330
     27 H7         -4.7329   -2.3506    0.9203 H         1 <0>         0.0915
     28 H8         -4.7647   -2.5558   -0.8475 H         1 <0>         0.0913
     29 H9         -2.2869   -2.2703   -0.9034 H         1 <0>         0.0828
     30 H10        -2.2782   -2.1337    0.8713 H         1 <0>         0.0803
     31 H11        -0.9026   -3.8672   -1.6754 H         1 <0>         0.1215
     32 H12        -0.6444   -5.2844   -3.6715 H         1 <0>         0.1277
     33 H13        -2.2869   -7.0730   -4.1093 H         1 <0>         0.1251
     34 H14        -4.1781   -7.4050   -2.6015 H         1 <0>         0.1223
     35 H15        -5.7638   -5.9997   -1.1617 H         1 <0>         0.0796
     36 H16        -4.8754   -7.1138   -0.1117 H         1 <0>         0.0764
     37 H17        -5.1407   -4.1220    0.3160 H         1 <0>         0.0728
     38 H18        -6.0638   -5.3767    1.1673 H         1 <0>         0.0709
     39 H19        -0.8216   -4.1746    2.0032 H         1 <0>         0.1257
     40 H20        -1.0526   -5.3858    4.1470 H         1 <0>         0.1276
     41 H21        -3.1479   -6.5447    4.6932 H         1 <0>         0.1270
     42 H22        -5.0720   -6.4709    3.1123 H         1 <0>         0.1291
     43 H23        -6.1426   -0.5339   -0.9908 H         1 <0>         0.4303
@<TRIPOS>BOND
     1    1    2 1
     2    1   21 1
     3    1   22 1
     4    1   23 1
     5    2    3 1
     6    2   24 1
     7    2   43 1
     8    3    4 1
     9    3   25 1
    10    3   26 1
    11    4    5 1
    12    4   27 1
    13    4   28 1
    14    5    6 1
    15    5   29 1
    16    5   30 1
    17    6   16 1
    18    6    7 1
    19    7   12 ar
    20    7    8 ar
    21    8    9 ar
    22    8   31 1
    23    9   10 ar
    24    9   32 1
    25   10   11 ar
    26   10   33 1
    27   11   12 ar
    28   11   34 1
    29   12   13 1
    30   13   14 1
    31   13   35 1
    32   13   36 1
    33   14   15 1
    34   14   37 1
    35   14   38 1
    36   15   20 ar
    37   15   16 ar
    38   16   17 ar
    39   17   18 ar
    40   17   39 1
    41   18   19 ar
    42   18   40 1
    43   19   20 ar
    44   19   41 1
    45   20   42 1
@<TRIPOS>MOLECULE
CHEMBL1085928
   58    61     0     0     0
SMALL
USER_CHARGES

@<TRIPOS>ATOM
      1 C1         -1.7855    0.5316    0.5034 C.ar      1 <0>        -0.0926
      2 C2         -2.9176    0.1460    1.2075 C.ar      1 <0>        -0.1240
      3 C3         -3.0758   -1.1471    1.6184 C.ar      1 <0>        -0.0598
      4 C4         -2.0907   -2.0951    1.3290 C.ar      1 <0>         0.0469
      5 C5         -0.9446   -1.7054    0.6159 C.ar      1 <0>         0.0509
      6 C6         -0.8009   -0.3865    0.2067 C.ar      1 <0>        -0.1136
      7 N1         -0.1710   -2.8416    0.4874 N.pl3     1 <0>        -0.5861
      8 H1          0.6886   -2.9045    0.0425 H         1 <0>         0.4263
      9 C7         -0.8376   -3.8564    1.1009 C.2       1 <0>         0.2747
     10 N2         -1.9603   -3.4206    1.5933 N.2       1 <0>        -0.4743
     11 C8         -0.3473   -5.2782    1.1959 C.3       1 <0>         0.1714
     12 O1          0.9194   -5.3899    0.5440 O.3       1 <0>        -0.3663
     13 C9          1.4992   -6.6051    0.5389 C.2       1 <0>         0.6615
     14 O2          0.9448   -7.5451    1.0734 O.2       1 <0>        -0.5410
     15 N3          2.6945   -6.7789   -0.0590 N.am      1 <0>        -0.6508
     16 C10         3.3424   -8.0171    0.0187 C.ar      1 <0>         0.1744
     17 C11         4.7271   -8.0735    0.1060 C.ar      1 <0>        -0.1353
     18 C12         5.3635   -9.2969    0.1825 C.ar      1 <0>        -0.0868
     19 C13         4.6232  -10.4648    0.1722 C.ar      1 <0>        -0.1215
     20 C14         3.2441  -10.4120    0.0853 C.ar      1 <0>        -0.0864
     21 C15         2.6015   -9.1915    0.0143 C.ar      1 <0>        -0.1152
     22 C16         5.3208  -11.7980    0.2553 C.3       1 <0>        -0.0983
     23 C17         5.4684  -12.2058    1.7226 C.3       1 <0>        -0.0080
     24 N4          6.1484  -13.5054    1.8036 N.4       1 <0>        -0.5053
     25 C18         6.2901  -13.8970    3.2123 C.3       1 <0>        -0.0428
     26 C19         6.9984  -15.2505    3.2967 C.3       1 <0>         0.1418
     27 H2          7.9851  -15.1734    2.8400 H         1 <0>         0.1338
     28 C20         7.1438  -15.6522    4.7419 C.ar      1 <0>        -0.2007
     29 C21         8.3104  -15.3680    5.4357 C.ar      1 <0>        -0.0549
     30 C22         8.3996  -15.7564    6.7634 C.ar      1 <0>        -0.1643
     31 C23         7.3304  -16.4093    7.3475 C.ar      1 <0>         0.1227
     32 N5          6.2364  -16.6634    6.6569 N.ar      1 <0>        -0.4748
     33 C24         6.1141  -16.3033    5.3940 C.ar      1 <0>         0.1174
     34 O3          6.2285  -16.2350    2.6038 O.3       1 <0>        -0.5461
     35 H3         -1.6773    1.5569    0.1819 H         1 <0>         0.1346
     36 H4         -3.6811    0.8757    1.4330 H         1 <0>         0.1344
     37 H5         -3.9604   -1.4362    2.1663 H         1 <0>         0.1332
     38 H6          0.0780   -0.0813   -0.3418 H         1 <0>         0.1256
     39 H7         -0.2422   -5.5570    2.2444 H         1 <0>         0.1111
     40 H8         -1.0641   -5.9427    0.7134 H         1 <0>         0.1117
     41 H9          3.1058   -6.0459   -0.5431 H         1 <0>         0.4232
     42 H10         5.3059   -7.1617    0.1138 H         1 <0>         0.1356
     43 H11         6.4405   -9.3415    0.2501 H         1 <0>         0.1317
     44 H12         2.6687  -11.3259    0.0771 H         1 <0>         0.1311
     45 H13         1.5241   -9.1508   -0.0490 H         1 <0>         0.1486
     46 H14         4.7336  -12.5490   -0.2732 H         1 <0>         0.0976
     47 H15         6.3075  -11.7209   -0.2014 H         1 <0>         0.0970
     48 H16         6.0557  -11.4549    2.2511 H         1 <0>         0.1338
     49 H17         4.4817  -12.2830    2.1792 H         1 <0>         0.1341
     50 H18         5.6048  -14.2005    1.3143 H         1 <0>         0.4328
     51 H19         6.8774  -13.1460    3.7408 H         1 <0>         0.1446
     52 H20         5.3034  -13.9741    3.6690 H         1 <0>         0.1380
     53 H21         9.1300  -14.8566    4.9529 H         1 <0>         0.1410
     54 H22         9.2933  -15.5517    7.3342 H         1 <0>         0.1472
     55 H23         7.3920  -16.7151    8.3815 H         1 <0>         0.1673
     56 H24         5.2005  -16.5239    4.8621 H         1 <0>         0.1531
     57 H25         5.3367  -16.3571    2.9571 H         1 <0>         0.3902
     58 H26         7.0618  -13.4340    1.3808 H         1 <0>         0.4295
@<TRIPOS>BOND
     1    1    6 ar
     2    1    2 ar
     3    1   35 1
     4    2    3 ar
     5    2   36 1
     6    3    4 ar
     7    3   37 1
     8    4   10 1
     9    4    5 ar
    10    5    6 ar
    11    5    7 1
    12    6   38 1
    13    7    8 1
    14    7    9 1
    15    9   10 2
    16    9   11 1
    17   11   12 1
    18   11   39 1
    19   11   40 1
    20   12   13 1
    21   13   14 2
    22   13   15 am
    23   15   16 1
    24   15   41 1
    25   16   21 ar
    26   16   17 ar
    27   17   18 ar
    28   17   42 1
    29   18   19 ar
    30   18   43 1
    31   19   20 ar
    32   19   22 1
    33   20   21 ar
    34   20   44 1
    35   21   45 1
    36   22   23 1
    37   22   46 1
    38   22   47 1
    39   23   24 1
    40   23   48 1
    41   23   49 1
    42   24   25 1
    43   24   50 1
    44   24   58 1
    45   25   26 1
    46   25   51 1
    47   25   52 1
    48   26   27 1
    49   26   28 1
    50   26   34 1
    51   28   33 ar
    52   28   29 ar
    53   29   30 ar
    54   29   53 1
    55   30   31 ar
    56   30   54 1
    57   31   32 ar
    58   31   55 1
    59   32   33 ar
    60   33   56 1
    61   34   57 1
@<TRIPOS>MOLECULE
CHEMBL65042
   55    57     0     0     0
SMALL
USER_CHARGES

@<TRIPOS>ATOM
      1 C1         -0.0167    1.3779    0.0096 C.ar      1 <0>        -0.1282
      2 C2          1.1834    2.0708    0.0019 C.ar      1 <0>        -0.1014
      3 C3          2.3677    1.3415   -0.0133 C.ar      1 <0>         0.0691
      4 C4          2.3054   -0.0445   -0.0202 C.ar      1 <0>         0.0189
      5 N1          1.1428   -0.6656   -0.0129 N.ar      1 <0>        -0.4489
      6 C5          0.0021   -0.0041    0.0020 C.ar      1 <0>         0.0697
      7 O1          3.5688    1.9776   -0.0218 O.3       1 <0>        -0.2969
      8 C6          4.7379    1.1560   -0.0374 C.3       1 <0>         0.0252
      9 C7          5.9845    2.0430   -0.0451 C.3       1 <0>         0.0871
     10 H1          5.9307    2.7381   -0.8829 H         1 <0>         0.1352
     11 C8          7.2319    1.1684   -0.1874 C.3       1 <0>        -0.0422
     12 N2          8.4288    2.0200   -0.1947 N.4       1 <0>        -0.5037
     13 C9          9.6264    1.1803   -0.3314 C.3       1 <0>        -0.0111
     14 C10        10.8730    2.0673   -0.3390 C.3       1 <0>        -0.0720
     15 C11        12.1016    1.2059   -0.4792 C.ar      1 <0>        -0.2339
     16 C12        12.7328    0.7157    0.6493 C.ar      1 <0>        -0.0637
     17 C13        13.8589   -0.0740    0.5245 C.ar      1 <0>        -0.1791
     18 C14        14.3573   -0.3758   -0.7365 C.ar      1 <0>         0.2960
     19 C15        13.7207    0.1182   -1.8681 C.ar      1 <0>        -0.2642
     20 C16        12.5918    0.9027   -1.7362 C.ar      1 <0>        -0.0475
     21 N3         15.4963   -1.1738   -0.8664 N.2       1 <0>        -1.0802
     22 S1         16.0888   -1.5325   -2.3706 S.o2      1 <0>         2.6085
     23 O2         15.1120   -2.3432   -3.0092 O.2       1 <0>        -1.0203
     24 O3         16.5466   -0.3087   -2.9292 O.2       1 <0>        -1.0182
     25 C17        17.5124   -2.5453   -2.1418 C.ar      1 <0>        -0.6072
     26 C18        18.7597   -1.9639   -2.0080 C.ar      1 <0>        -0.0068
     27 C19        19.8771   -2.7572   -1.8290 C.ar      1 <0>        -0.1223
     28 C20        19.7480   -4.1339   -1.7831 C.ar      1 <0>         0.0082
     29 C21        18.4990   -4.7160   -1.9167 C.ar      1 <0>        -0.0552
     30 C22        17.3808   -3.9201   -2.0906 C.ar      1 <0>        -0.0017
     31 Cl1        18.3353   -6.4433   -1.8600 Cl        1 <0>        -0.0464
     32 Cl2        21.1514   -5.1309   -1.5588 Cl        1 <0>        -0.0443
     33 O4          6.0545    2.7769    1.1791 O.3       1 <0>        -0.5447
     34 H2         -0.9555    1.9114    0.0259 H         1 <0>         0.1478
     35 H3          1.1987    3.1507    0.0072 H         1 <0>         0.1454
     36 H4          3.2189   -0.6205   -0.0320 H         1 <0>         0.1548
     37 H5         -0.9300   -0.5495    0.0080 H         1 <0>         0.1634
     38 H6          4.7484    0.5222    0.8493 H         1 <0>         0.0797
     39 H7          4.7310    0.5312   -0.9305 H         1 <0>         0.0851
     40 H8          7.2857    0.4732    0.6505 H         1 <0>         0.1391
     41 H9          7.1785    0.6086   -1.1211 H         1 <0>         0.1462
     42 H10         8.3789    2.6635   -0.9703 H         1 <0>         0.4279
     43 H11         9.6802    0.4851    0.5065 H         1 <0>         0.1315
     44 H12         9.5730    0.6205   -1.2651 H         1 <0>         0.1316
     45 H13        10.8192    2.7624   -1.1769 H         1 <0>         0.0804
     46 H14        10.9264    2.6271    0.5947 H         1 <0>         0.0813
     47 H15        12.3450    0.9511    1.6294 H         1 <0>         0.1053
     48 H16        14.3517   -0.4561    1.4062 H         1 <0>         0.1177
     49 H17        14.1058   -0.1143   -2.8499 H         1 <0>         0.1019
     50 H18        12.0938    1.2834   -2.6156 H         1 <0>         0.1026
     51 H19        18.8609   -0.8893   -2.0437 H         1 <0>         0.1539
     52 H20        20.8512   -2.3025   -1.7252 H         1 <0>         0.1502
     53 H21        16.4057   -4.3734   -2.1909 H         1 <0>         0.1561
     54 H22         6.1048    2.2209    1.9687 H         1 <0>         0.3900
     55 H23         8.4782    2.5382    0.6696 H         1 <0>         0.4302
@<TRIPOS>BOND
     1    1    6 ar
     2    1    2 ar
     3    1   34 1
     4    2    3 ar
     5    2   35 1
     6    3    4 ar
     7    3    7 1
     8    4    5 ar
     9    4   36 1
    10    5    6 ar
    11    6   37 1
    12    7    8 1
    13    8    9 1
    14    8   38 1
    15    8   39 1
    16    9   10 1
    17    9   11 1
    18    9   33 1
    19   11   12 1
    20   11   40 1
    21   11   41 1
    22   12   13 1
    23   12   42 1
    24   12   55 1
    25   13   14 1
    26   13   43 1
    27   13   44 1
    28   14   15 1
    29   14   45 1
    30   14   46 1
    31   15   20 ar
    32   15   16 ar
    33   16   17 ar
    34   16   47 1
    35   17   18 ar
    36   17   48 1
    37   18   19 ar
    38   18   21 1
    39   19   20 ar
    40   19   49 1
    41   20   50 1
    42   21   22 1
    43   22   23 2
    44   22   24 2
    45   22   25 1
    46   25   30 ar
    47   25   26 ar
    48   26   27 ar
    49   26   51 1
    50   27   28 ar
    51   27   52 1
    52   28   29 ar
    53   28   32 1
    54   29   30 ar
    55   29   31 1
    56   30   53 1
    57   33   54 1
@<TRIPOS>MOLECULE
CHEMBL65042__1
   56    58     0     0     0
SMALL
USER_CHARGES

@<TRIPOS>ATOM
      1 C1          0.0382    1.6345    0.1348 C.ar      1 <0>        -0.1265
      2 C2          1.2469    2.3093    0.0710 C.ar      1 <0>        -0.0994
      3 C3          2.4212    1.5637    0.0742 C.ar      1 <0>         0.0656
      4 C4          2.3406    0.1801    0.1408 C.ar      1 <0>         0.0187
      5 N1          1.1703   -0.4234    0.1998 N.ar      1 <0>        -0.4491
      6 C5          0.0387    0.2539    0.1991 C.ar      1 <0>         0.0730
      7 O1          3.6302    2.1816    0.0126 O.3       1 <0>        -0.2966
      8 C6          4.7880    1.3440    0.0206 C.3       1 <0>         0.0255
      9 C7          6.0458    2.2119   -0.0541 C.3       1 <0>         0.0867
     10 H1          5.9865    2.8633   -0.9261 H         1 <0>         0.1370
     11 C8          7.2789    1.3138   -0.1712 C.3       1 <0>        -0.0425
     12 N2          8.4865    2.1471   -0.2429 N.4       1 <0>        -0.5036
     13 C9          9.6705    1.2848   -0.3553 C.3       1 <0>        -0.0092
     14 C10        10.9283    2.1526   -0.4300 C.3       1 <0>        -0.1004
     15 C11        12.1429    1.2680   -0.5453 C.ar      1 <0>        -0.1166
     16 C12        12.7871    0.8285    0.5966 C.ar      1 <0>        -0.0883
     17 C13        13.9004    0.0177    0.4945 C.ar      1 <0>        -0.1238
     18 C14        14.3730   -0.3562   -0.7571 C.ar      1 <0>         0.1602
     19 C15        13.7234    0.0871   -1.9022 C.ar      1 <0>        -0.1491
     20 C16        12.6073    0.8931   -1.7927 C.ar      1 <0>        -0.0823
     21 N3         15.4989   -1.1758   -0.8640 N.pl3     1 <0>        -1.0570
     22 S1         15.4855   -2.4707   -1.8961 S.o2      1 <0>         2.6912
     23 O2         15.0808   -1.9748   -3.1647 O.2       1 <0>        -0.9366
     24 O3         16.7150   -3.1565   -1.7032 O.2       1 <0>        -0.9308
     25 C17        14.2112   -3.5585   -1.3507 C.ar      1 <0>        -0.6687
     26 C18        14.4695   -4.4797   -0.3525 C.ar      1 <0>         0.0028
     27 C19        13.4709   -5.3338    0.0760 C.ar      1 <0>        -0.1156
     28 C20        12.2120   -5.2669   -0.4937 C.ar      1 <0>         0.0227
     29 C21        11.9532   -4.3442   -1.4928 C.ar      1 <0>        -0.0562
     30 C22        12.9525   -3.4865   -1.9169 C.ar      1 <0>         0.0027
     31 Cl1        10.3742   -4.2595   -2.2091 Cl        1 <0>        -0.0355
     32 Cl2        10.9575   -6.3399    0.0437 Cl        1 <0>        -0.0229
     33 O4          6.1465    3.0074    1.1287 O.3       1 <0>        -0.5432
     34 H2         -0.8932    2.1812    0.1388 H         1 <0>         0.1497
     35 H3          1.2765    3.3877    0.0196 H         1 <0>         0.1462
     36 H4          3.2462   -0.4084    0.1439 H         1 <0>         0.1528
     37 H5         -0.9002   -0.2775    0.2490 H         1 <0>         0.1652
     38 H6          4.8055    0.7571    0.9389 H         1 <0>         0.0793
     39 H7          4.7575    0.6738   -0.8384 H         1 <0>         0.0845
     40 H8          7.3381    0.6625    0.7008 H         1 <0>         0.1407
     41 H9          7.2021    0.7070   -1.0734 H         1 <0>         0.1482
     42 H10         8.4317    2.7500   -1.0501 H         1 <0>         0.4317
     43 H11         9.7297    0.6334    0.5167 H         1 <0>         0.1345
     44 H12         9.5937    0.6780   -1.2575 H         1 <0>         0.1359
     45 H13        10.8691    2.8040   -1.3020 H         1 <0>         0.0992
     46 H14        11.0051    2.7594    0.4722 H         1 <0>         0.0983
     47 H15        12.4194    1.1199    1.5694 H         1 <0>         0.1311
     48 H16        14.4034   -0.3250    1.3867 H         1 <0>         0.1367
     49 H17        14.0884   -0.2015   -2.8768 H         1 <0>         0.1629
     50 H18        12.0992    1.2345   -2.6825 H         1 <0>         0.1343
     51 H19        16.2888   -0.9864   -0.3337 H         1 <0>         0.4344
     52 H20        15.4522   -4.5321    0.0924 H         1 <0>         0.1591
     53 H21        13.6736   -6.0536    0.8552 H         1 <0>         0.1590
     54 H22        12.7503   -2.7637   -2.6935 H         1 <0>         0.1599
     55 H23         6.2031    2.4926    1.9453 H         1 <0>         0.3906
     56 H24         8.5577    2.7088    0.5923 H         1 <0>         0.4338
@<TRIPOS>BOND
     1    1    6 ar
     2    1    2 ar
     3    1   34 1
     4    2    3 ar
     5    2   35 1
     6    3    4 ar
     7    3    7 1
     8    4    5 ar
     9    4   36 1
    10    5    6 ar
    11    6   37 1
    12    7    8 1
    13    8    9 1
    14    8   38 1
    15    8   39 1
    16    9   10 1
    17    9   11 1
    18    9   33 1
    19   11   12 1
    20   11   40 1
    21   11   41 1
    22   12   13 1
    23   12   42 1
    24   12   56 1
    25   13   14 1
    26   13   43 1
    27   13   44 1
    28   14   15 1
    29   14   45 1
    30   14   46 1
    31   15   20 ar
    32   15   16 ar
    33   16   17 ar
    34   16   47 1
    35   17   18 ar
    36   17   48 1
    37   18   19 ar
    38   18   21 1
    39   19   20 ar
    40   19   49 1
    41   20   50 1
    42   21   22 1
    43   21   51 1
    44   22   23 2
    45   22   24 2
    46   22   25 1
    47   25   30 ar
    48   25   26 ar
    49   26   27 ar
    50   26   52 1
    51   27   28 ar
    52   27   53 1
    53   28   29 ar
    54   28   32 1
    55   29   30 ar
    56   29   31 1
    57   30   54 1
    58   33   55 1
@<TRIPOS>MOLECULE
CHEMBL515349
   71    75     0     0     0
SMALL
USER_CHARGES

@<TRIPOS>ATOM
      1 C1          0.1333    0.0812    0.2961 C.ar      1 <0>        -0.0984
      2 C2          1.0692    1.0861    0.1348 C.ar      1 <0>        -0.0984
      3 C3          2.4167    0.7791    0.1129 C.ar      1 <0>        -0.1285
      4 C4          2.8294   -0.5328    0.2518 C.ar      1 <0>        -0.0992
      5 C5          1.8935   -1.5386    0.4133 C.ar      1 <0>        -0.0300
      6 C6          0.5446   -1.2307    0.4355 C.ar      1 <0>        -0.0928
      7 Cl1         2.4110   -3.1865    0.5872 Cl        1 <0>        -0.0488
      8 C7          3.4361    1.8750   -0.0630 C.3       1 <0>         0.1376
      9 H1          3.0160    2.8205    0.2797 H         1 <0>         0.1347
     10 C8          3.8115    1.9898   -1.5418 C.3       1 <0>        -0.0481
     11 N1          4.8052    3.0580   -1.7132 N.4       1 <0>        -0.5017
     12 C9          5.1656    3.1683   -3.1331 C.3       1 <0>         0.0257
     13 H2          4.2653    3.3150   -3.7299 H         1 <0>         0.1449
     14 C10         6.1169    4.3538   -3.3337 C.3       1 <0>        -0.1365
     15 C11         6.2819    4.5906   -4.8334 C.3       1 <0>        -0.0683
     16 C12         6.6484    3.3087   -5.5349 C.ar      1 <0>        -0.1293
     17 C13         7.2001    3.4036   -6.8068 C.ar      1 <0>        -0.0726
     18 C14         7.5520    2.2692   -7.5060 C.ar      1 <0>        -0.1720
     19 C15         7.3533    1.0200   -6.9349 C.ar      1 <0>         0.1481
     20 C16         6.8063    0.9259   -5.6666 C.ar      1 <0>        -0.1510
     21 C17         6.4558    2.0705   -4.9636 C.ar      1 <0>        -0.0586
     22 C18         5.8791    1.8951   -3.5829 C.3       1 <0>        -0.0893
     23 O1          7.6935   -0.1049   -7.6172 O.3       1 <0>        -0.2524
     24 C19         8.2333    0.0391   -8.8560 C.ar      1 <0>         0.0885
     25 C20         9.6063    0.1497   -9.0033 C.ar      1 <0>        -0.1357
     26 C21        10.1608    0.2976  -10.2764 C.ar      1 <0>        -0.0740
     27 C22         9.3276    0.3334  -11.3965 C.ar      1 <0>        -0.1468
     28 C23         7.9545    0.2220  -11.2397 C.ar      1 <0>         0.2094
     29 C24         7.4088    0.0694   -9.9712 C.ar      1 <0>        -0.2071
     30 N2          7.1192    0.2581  -12.3590 N.pl3     1 <0>        -0.7439
     31 C25         7.6942    0.4135  -13.6975 C.3       1 <0>         0.1498
     32 C26         7.8984    1.9016  -13.9978 C.3       1 <0>        -0.1703
     33 C27         8.4253    2.0583  -15.4266 C.3       1 <0>         0.0604
     34 O2          7.5050    1.4586  -16.3407 O.3       1 <0>        -0.3839
     35 C28         7.3106    0.0574  -16.1379 C.3       1 <0>         0.0634
     36 C29         6.7389   -0.1796  -14.7376 C.3       1 <0>        -0.1603
     37 C30        11.6229    0.4162  -10.4376 C.2       1 <0>         0.5193
     38 O3         12.3508    0.3851   -9.4554 O.co2     1 <0>        -0.6804
     39 O4         12.1065    0.5457  -11.5533 O.co2     1 <0>        -0.6780
     40 O5          4.6031    1.5671    0.7021 O.3       1 <0>        -0.5468
     41 H3         -0.9193    0.3222    0.3177 H         1 <0>         0.1418
     42 H4          0.7472    2.1111    0.0255 H         1 <0>         0.1348
     43 H5          3.8823   -0.7726    0.2340 H         1 <0>         0.1342
     44 H6         -0.1865   -2.0155    0.5615 H         1 <0>         0.1422
     45 H7          4.2316    1.0443   -1.8845 H         1 <0>         0.1391
     46 H8          2.9213    2.2246   -2.1254 H         1 <0>         0.1462
     47 H9          4.4163    3.9333   -1.3960 H         1 <0>         0.4291
     48 H10         5.6976    5.2443   -2.8654 H         1 <0>         0.0912
     49 H11         7.0858    4.1263   -2.8892 H         1 <0>         0.0942
     50 H12         5.3453    4.9692   -5.2428 H         1 <0>         0.0832
     51 H13         7.0686    5.3272   -4.9966 H         1 <0>         0.0946
     52 H14         7.3543    4.3755   -7.2518 H         1 <0>         0.1293
     53 H15         7.9801    2.3520   -8.4941 H         1 <0>         0.1398
     54 H16         6.6504   -0.0454   -5.2209 H         1 <0>         0.1316
     55 H17         6.6841    1.6682   -2.8840 H         1 <0>         0.0974
     56 H18         5.1683    1.0689   -3.5920 H         1 <0>         0.0961
     57 H19        10.2472    0.1219   -8.1345 H         1 <0>         0.1315
     58 H20         9.7520    0.4480  -12.3830 H         1 <0>         0.1341
     59 H21         6.3392   -0.0216   -9.8526 H         1 <0>         0.1181
     60 H22         6.1585    0.1802  -12.2499 H         1 <0>         0.3944
     61 H23         8.6522   -0.1042  -13.7451 H         1 <0>         0.0860
     62 H24         6.9482    2.4266  -13.9004 H         1 <0>         0.0706
     63 H25         8.6200    2.3193  -13.2956 H         1 <0>         0.0813
     64 H26         8.5320    3.1175  -15.6606 H         1 <0>         0.0967
     65 H27         9.3948    1.5674  -15.5124 H         1 <0>         0.0580
     66 H28         6.6142   -0.3247  -16.8843 H         1 <0>         0.0967
     67 H29         8.2655   -0.4596  -16.2330 H         1 <0>         0.0558
     68 H30         6.6313   -1.2504  -14.5646 H         1 <0>         0.0790
     69 H31         5.7652    0.3034  -14.6552 H         1 <0>         0.0736
     70 H32         5.0305    0.7369    0.4509 H         1 <0>         0.3899
     71 H33         5.6292    2.8407   -1.1730 H         1 <0>         0.4305
@<TRIPOS>BOND
     1    1    6 ar
     2    1    2 ar
     3    1   41 1
     4    2    3 ar
     5    2   42 1
     6    3    4 ar
     7    3    8 1
     8    4    5 ar
     9    4   43 1
    10    5    6 ar
    11    5    7 1
    12    6   44 1
    13    8    9 1
    14    8   10 1
    15    8   40 1
    16   10   11 1
    17   10   45 1
    18   10   46 1
    19   11   12 1
    20   11   47 1
    21   11   71 1
    22   12   13 1
    23   12   22 1
    24   12   14 1
    25   14   15 1
    26   14   48 1
    27   14   49 1
    28   15   16 1
    29   15   50 1
    30   15   51 1
    31   16   21 ar
    32   16   17 ar
    33   17   18 ar
    34   17   52 1
    35   18   19 ar
    36   18   53 1
    37   19   20 ar
    38   19   23 1
    39   20   21 ar
    40   20   54 1
    41   21   22 1
    42   22   55 1
    43   22   56 1
    44   23   24 1
    45   24   29 ar
    46   24   25 ar
    47   25   26 ar
    48   25   57 1
    49   26   27 ar
    50   26   37 1
    51   27   28 ar
    52   27   58 1
    53   28   29 ar
    54   28   30 1
    55   29   59 1
    56   30   31 1
    57   30   60 1
    58   31   36 1
    59   31   32 1
    60   31   61 1
    61   32   33 1
    62   32   62 1
    63   32   63 1
    64   33   34 1
    65   33   64 1
    66   33   65 1
    67   34   35 1
    68   35   36 1
    69   35   66 1
    70   35   67 1
    71   36   68 1
    72   36   69 1
    73   37   38 2
    74   37   39 1
    75   40   70 1
@<TRIPOS>MOLECULE
CHEMBL537693
   55    57     0     0     0
SMALL
USER_CHARGES

@<TRIPOS>ATOM
      1 C1          2.1009    1.6862    1.9567 C.ar      1 <0>        -0.0980
      2 C2          3.1136    2.5613    1.6099 C.ar      1 <0>        -0.0983
      3 C3          4.4126    2.1040    1.4918 C.ar      1 <0>        -0.1296
      4 C4          4.6999    0.7712    1.7198 C.ar      1 <0>        -0.0995
      5 C5          3.6871   -0.1048    2.0668 C.ar      1 <0>        -0.0303
      6 C6          2.3869    0.3537    2.1854 C.ar      1 <0>        -0.0923
      7 Cl1         4.0469   -1.7789    2.3528 Cl        1 <0>        -0.0486
      8 C7          5.5158    3.0585    1.1138 C.3       1 <0>         0.1364
      9 H1          5.2335    4.0717    1.3997 H         1 <0>         0.1351
     10 C8          5.7449    3.0002   -0.3979 C.3       1 <0>        -0.0435
     11 N1          6.8204    3.9306   -0.7664 N.4       1 <0>        -0.5055
     12 C9          7.0403    3.8746   -2.2177 C.3       1 <0>        -0.0087
     13 C10         8.1604    4.8437   -2.6015 C.3       1 <0>        -0.0911
     14 C11         8.3861    4.7863   -4.0904 C.ar      1 <0>        -0.1560
     15 C12         9.2926    3.8846   -4.6168 C.ar      1 <0>        -0.0673
     16 C13         9.5014    3.8299   -5.9812 C.ar      1 <0>        -0.1902
     17 C14         8.8000    4.6806   -6.8237 C.ar      1 <0>         0.1477
     18 C15         7.8905    5.5842   -6.2929 C.ar      1 <0>        -0.1501
     19 C16         7.6821    5.6315   -4.9282 C.ar      1 <0>        -0.0710
     20 O1          9.0038    4.6292   -8.1662 O.3       1 <0>        -0.2456
     21 C17         9.8989    3.7229   -8.6416 C.ar      1 <0>         0.0024
     22 C18         9.4774    2.4472   -8.9870 C.ar      1 <0>        -0.0795
     23 C19        10.3868    1.5266   -9.4700 C.ar      1 <0>        -0.1494
     24 C20        11.7214    1.8776   -9.6097 C.ar      1 <0>         0.1567
     25 C21        12.1430    3.1531   -9.2644 C.ar      1 <0>        -0.2062
     26 C22        11.2327    4.0757   -8.7868 C.ar      1 <0>        -0.0752
     27 O2         12.6167    0.9711  -10.0847 O.3       1 <0>        -0.2733
     28 C23        13.9745    1.4007  -10.2026 C.3       1 <0>        -0.0110
     29 C24        14.8138    0.2710  -10.7414 C.2       1 <0>         0.5004
     30 O3         14.2971   -0.8026  -11.0005 O.co2     1 <0>        -0.6688
     31 O4         16.0095    0.4305  -10.9183 O.co2     1 <0>        -0.6817
     32 O5          6.7181    2.6896    1.7923 O.3       1 <0>        -0.5469
     33 H2          1.0868    2.0450    2.0533 H         1 <0>         0.1422
     34 H3          2.8896    3.6025    1.4310 H         1 <0>         0.1351
     35 H4          5.7148    0.4138    1.6268 H         1 <0>         0.1338
     36 H5          1.5957   -0.3298    2.4562 H         1 <0>         0.1426
     37 H6          6.0273    1.9870   -0.6838 H         1 <0>         0.1375
     38 H7          4.8279    3.2816   -0.9155 H         1 <0>         0.1456
     39 H8          6.5590    4.8685   -0.5017 H         1 <0>         0.4285
     40 H9          7.3227    2.8614   -2.5036 H         1 <0>         0.1333
     41 H10         6.1233    4.1560   -2.7353 H         1 <0>         0.1337
     42 H11         7.8781    5.8569   -2.3156 H         1 <0>         0.0934
     43 H12         9.0775    4.5623   -2.0839 H         1 <0>         0.0936
     44 H13         9.8382    3.2227   -3.9605 H         1 <0>         0.1258
     45 H14        10.2101    3.1259   -6.3917 H         1 <0>         0.1378
     46 H15         7.3437    6.2477   -6.9465 H         1 <0>         0.1367
     47 H16         6.9716    6.3320   -4.5149 H         1 <0>         0.1289
     48 H17         8.4383    2.1737   -8.8779 H         1 <0>         0.1323
     49 H18        10.0588    0.5333   -9.7385 H         1 <0>         0.1414
     50 H19        13.1821    3.4264   -9.3732 H         1 <0>         0.1395
     51 H20        11.5600    5.0704   -8.5225 H         1 <0>         0.1293
     52 H21        14.0289    2.2504  -10.8832 H         1 <0>         0.0640
     53 H22        14.3486    1.6958   -9.2223 H         1 <0>         0.0623
     54 H23         7.0290    1.7977    1.5850 H         1 <0>         0.3898
     55 H24         7.6693    3.6701   -0.2872 H         1 <0>         0.4320
@<TRIPOS>BOND
     1    1    6 ar
     2    1    2 ar
     3    1   33 1
     4    2    3 ar
     5    2   34 1
     6    3    4 ar
     7    3    8 1
     8    4    5 ar
     9    4   35 1
    10    5    6 ar
    11    5    7 1
    12    6   36 1
    13    8    9 1
    14    8   10 1
    15    8   32 1
    16   10   11 1
    17   10   37 1
    18   10   38 1
    19   11   12 1
    20   11   39 1
    21   11   55 1
    22   12   13 1
    23   12   40 1
    24   12   41 1
    25   13   14 1
    26   13   42 1
    27   13   43 1
    28   14   19 ar
    29   14   15 ar
    30   15   16 ar
    31   15   44 1
    32   16   17 ar
    33   16   45 1
    34   17   18 ar
    35   17   20 1
    36   18   19 ar
    37   18   46 1
    38   19   47 1
    39   20   21 1
    40   21   26 ar
    41   21   22 ar
    42   22   23 ar
    43   22   48 1
    44   23   24 ar
    45   23   49 1
    46   24   25 ar
    47   24   27 1
    48   25   26 ar
    49   25   50 1
    50   26   51 1
    51   27   28 1
    52   28   29 1
    53   28   52 1
    54   28   53 1
    55   29   30 2
    56   29   31 1
    57   32   54 1
@<TRIPOS>MOLECULE
CHEMBL565686
   61    64     0     0     0
SMALL
USER_CHARGES

@<TRIPOS>ATOM
      1 C1         -0.0187    1.5258    0.0104 C.3       1 <0>        -0.1803
      2 C2          0.0021   -0.0041    0.0020 C.3       1 <0>         0.0602
      3 C3          0.7421   -0.5109    1.2415 C.3       1 <0>        -0.1807
      4 C4         -1.4333   -0.5336    0.0129 C.3       1 <0>        -0.0897
      5 C5         -2.1387   -0.0476    1.2528 C.ar      1 <0>        -0.1048
      6 C6         -2.0913   -0.8004    2.4123 C.ar      1 <0>        -0.1037
      7 C7         -2.7355   -0.3600    3.5507 C.ar      1 <0>        -0.1101
      8 C8         -3.4345    0.8452    3.5305 C.ar      1 <0>        -0.0188
      9 C9         -3.4789    1.5994    2.3597 C.ar      1 <0>        -0.1102
     10 C10        -2.8264    1.1523    1.2287 C.ar      1 <0>        -0.1039
     11 C11        -4.1295    1.3235    4.7512 C.ar      1 <0>        -0.0658
     12 C12        -4.0806    0.5719    5.9235 C.ar      1 <0>        -0.1058
     13 C13        -4.7284    1.0217    7.0562 C.ar      1 <0>        -0.1169
     14 C14        -5.4256    2.2161    7.0289 C.ar      1 <0>        -0.1078
     15 C15        -5.4778    2.9660    5.8677 C.ar      1 <0>        -0.1169
     16 C16        -4.8285    2.5287    4.7310 C.ar      1 <0>        -0.1058
     17 N1          0.6897   -0.4778   -1.2066 N.4       1 <0>        -0.4992
     18 C17         2.0678    0.0307   -1.2170 C.3       1 <0>        -0.0494
     19 C18         2.7840   -0.4628   -2.4758 C.3       1 <0>         0.1461
     20 C19         4.2310   -0.0447   -2.4270 C.ar      1 <0>        -0.1370
     21 C20         4.6351    1.1233   -3.0484 C.ar      1 <0>        -0.0816
     22 C21         5.9607    1.5125   -3.0071 C.ar      1 <0>        -0.1244
     23 C22         6.8952    0.7329   -2.3408 C.ar      1 <0>         0.1248
     24 C23         6.4930   -0.4405   -1.7157 C.ar      1 <0>         0.0773
     25 C24         5.1556   -0.8266   -1.7554 C.ar      1 <0>         0.1047
     26 O1          4.7728   -1.9758   -1.1370 O.3       1 <0>        -0.3068
     27 C25         5.7263   -3.0410   -1.1116 C.3       1 <0>         0.0501
     28 C26         7.0741   -2.5049   -0.7005 C.2       1 <0>         0.4882
     29 O2          7.8460   -3.2068   -0.0818 O.2       1 <0>        -0.4900
     30 N2          7.4204   -1.2453   -1.0346 N.am      1 <0>        -0.6550
     31 O3          8.1994    1.1157   -2.3002 O.3       1 <0>        -0.4849
     32 O4          2.1628    0.1050   -3.6307 O.3       1 <0>        -0.5445
     33 H1          1.0039    1.9031    0.0027 H         1 <0>         0.0808
     34 H2         -0.5459    1.8868   -0.8726 H         1 <0>         0.0830
     35 H3         -0.5289    1.8773    0.9072 H         1 <0>         0.1100
     36 H4          0.2319   -0.1594    2.1383 H         1 <0>         0.1097
     37 H5          0.7568   -1.6008    1.2356 H         1 <0>         0.0834
     38 H6          1.7647   -0.1336    1.2338 H         1 <0>         0.0814
     39 H7         -1.9605   -0.1726   -0.8702 H         1 <0>         0.0968
     40 H8         -1.4185   -1.6235    0.0069 H         1 <0>         0.0967
     41 H9         -1.5495   -1.7345    2.4267 H         1 <0>         0.1266
     42 H10        -2.6981   -0.9487    4.4554 H         1 <0>         0.1313
     43 H11        -4.0196    2.5340    2.3385 H         1 <0>         0.1313
     44 H12        -2.8562    1.7383    0.3220 H         1 <0>         0.1265
     45 H13        -3.5371   -0.3611    5.9457 H         1 <0>         0.1252
     46 H14        -4.6912    0.4400    7.9653 H         1 <0>         0.1283
     47 H15        -5.9314    2.5642    7.9173 H         1 <0>         0.1277
     48 H16        -6.0239    3.8976    5.8519 H         1 <0>         0.1283
     49 H17        -4.8661    3.1171    3.8262 H         1 <0>         0.1252
     50 H18         0.7033   -1.4867   -1.2121 H         1 <0>         0.4278
     51 H19         2.0530    1.1205   -1.2110 H         1 <0>         0.1399
     52 H20         2.5950   -0.3304   -0.3340 H         1 <0>         0.1480
     53 H21         2.7213   -1.5498   -2.5270 H         1 <0>         0.1361
     54 H22         3.9116    1.7336   -3.5684 H         1 <0>         0.1428
     55 H23         6.2698    2.4252   -3.4949 H         1 <0>         0.1499
     56 H24         5.4043   -3.7992   -0.3977 H         1 <0>         0.1546
     57 H25         5.8000   -3.4858   -2.1040 H         1 <0>         0.1087
     58 H26         8.2941   -0.8972   -0.7971 H         1 <0>         0.4235
     59 H27         8.4214    1.6764   -1.5443 H         1 <0>         0.4011
     60 H28         2.1814    1.0716   -3.6522 H         1 <0>         0.3882
     61 H29         0.2017   -0.1436   -2.0240 H         1 <0>         0.4300
@<TRIPOS>BOND
     1    1    2 1
     2    1   33 1
     3    1   34 1
     4    1   35 1
     5    2    3 1
     6    2    4 1
     7    2   17 1
     8    3   36 1
     9    3   37 1
    10    3   38 1
    11    4    5 1
    12    4   39 1
    13    4   40 1
    14    5   10 ar
    15    5    6 ar
    16    6    7 ar
    17    6   41 1
    18    7    8 ar
    19    7   42 1
    20    8    9 ar
    21    8   11 1
    22    9   10 ar
    23    9   43 1
    24   10   44 1
    25   11   16 ar
    26   11   12 ar
    27   12   13 ar
    28   12   45 1
    29   13   14 ar
    30   13   46 1
    31   14   15 ar
    32   14   47 1
    33   15   16 ar
    34   15   48 1
    35   16   49 1
    36   17   18 1
    37   17   50 1
    38   17   61 1
    39   18   19 1
    40   18   51 1
    41   18   52 1
    42   19   20 1
    43   19   32 1
    44   19   53 1
    45   20   25 ar
    46   20   21 ar
    47   21   22 ar
    48   21   54 1
    49   22   23 ar
    50   22   55 1
    51   23   24 ar
    52   23   31 1
    53   24   30 1
    54   24   25 ar
    55   25   26 1
    56   26   27 1
    57   27   28 1
    58   27   56 1
    59   27   57 1
    60   28   29 2
    61   28   30 am
    62   30   58 1
    63   31   59 1
    64   32   60 1
@<TRIPOS>MOLECULE
CHEMBL565686__1
   61    64     0     0     0
SMALL
USER_CHARGES

@<TRIPOS>ATOM
      1 C1         -0.0187    1.5258    0.0104 C.3       1 <0>        -0.1810
      2 C2          0.0021   -0.0041    0.0020 C.3       1 <0>         0.0599
      3 C3          0.7421   -0.5109    1.2415 C.3       1 <0>        -0.1808
      4 C4         -1.4333   -0.5336    0.0129 C.3       1 <0>        -0.0896
      5 C5         -2.1387   -0.0476    1.2528 C.ar      1 <0>        -0.1050
      6 C6         -2.0913   -0.8004    2.4123 C.ar      1 <0>        -0.1039
      7 C7         -2.7355   -0.3600    3.5507 C.ar      1 <0>        -0.1102
      8 C8         -3.4345    0.8452    3.5305 C.ar      1 <0>        -0.0185
      9 C9         -3.4789    1.5994    2.3597 C.ar      1 <0>        -0.1101
     10 C10        -2.8264    1.1523    1.2287 C.ar      1 <0>        -0.1038
     11 C11        -4.1295    1.3235    4.7512 C.ar      1 <0>        -0.0660
     12 C12        -4.0806    0.5719    5.9235 C.ar      1 <0>        -0.1058
     13 C13        -4.7284    1.0217    7.0562 C.ar      1 <0>        -0.1169
     14 C14        -5.4256    2.2161    7.0289 C.ar      1 <0>        -0.1076
     15 C15        -5.4778    2.9660    5.8677 C.ar      1 <0>        -0.1169
     16 C16        -4.8285    2.5287    4.7310 C.ar      1 <0>        -0.1058
     17 N1          0.6897   -0.4778   -1.2066 N.4       1 <0>        -0.4987
     18 C17         2.0678    0.0307   -1.2170 C.3       1 <0>        -0.0495
     19 C18         2.7840   -0.4628   -2.4758 C.3       1 <0>         0.1454
     20 C19         4.1978    0.0589   -2.4865 C.ar      1 <0>        -0.1384
     21 C20         5.2282   -0.7251   -1.9995 C.ar      1 <0>        -0.0810
     22 C21         6.5272   -0.2527   -2.0067 C.ar      1 <0>        -0.1248
     23 C22         6.8055    1.0125   -2.5037 C.ar      1 <0>         0.1255
     24 C23         5.7734    1.8023   -2.9935 C.ar      1 <0>         0.0764
     25 C24         4.4666    1.3208   -2.9891 C.ar      1 <0>         0.1068
     26 O1          3.4646    2.1018   -3.4742 O.3       1 <0>        -0.3039
     27 C25         3.6068    3.5137   -3.2985 C.3       1 <0>         0.0499
     28 C26         5.0005    3.9351   -3.6894 C.2       1 <0>         0.4877
     29 O2          5.1946    5.0362   -4.1599 O.2       1 <0>        -0.4896
     30 N2          6.0308    3.0856   -3.5023 N.am      1 <0>        -0.6544
     31 O3          8.0834    1.4774   -2.5108 O.3       1 <0>        -0.4864
     32 O4          2.8033   -1.8916   -2.4837 O.3       1 <0>        -0.5446
     33 H1          1.0039    1.9031    0.0027 H         1 <0>         0.0803
     34 H2         -0.5459    1.8868   -0.8726 H         1 <0>         0.0837
     35 H3         -0.5289    1.8773    0.9072 H         1 <0>         0.1103
     36 H4          0.2319   -0.1594    2.1383 H         1 <0>         0.1103
     37 H5          0.7568   -1.6008    1.2356 H         1 <0>         0.0832
     38 H6          1.7647   -0.1336    1.2338 H         1 <0>         0.0809
     39 H7         -1.9605   -0.1726   -0.8702 H         1 <0>         0.0969
     40 H8         -1.4185   -1.6235    0.0069 H         1 <0>         0.0969
     41 H9         -1.5495   -1.7345    2.4267 H         1 <0>         0.1265
     42 H10        -2.6981   -0.9487    4.4554 H         1 <0>         0.1314
     43 H11        -4.0196    2.5340    2.3385 H         1 <0>         0.1314
     44 H12        -2.8562    1.7383    0.3220 H         1 <0>         0.1265
     45 H13        -3.5371   -0.3611    5.9457 H         1 <0>         0.1252
     46 H14        -4.6912    0.4400    7.9653 H         1 <0>         0.1283
     47 H15        -5.9314    2.5642    7.9173 H         1 <0>         0.1277
     48 H16        -6.0239    3.8976    5.8519 H         1 <0>         0.1283
     49 H17        -4.8661    3.1171    3.8262 H         1 <0>         0.1252
     50 H18         0.7033   -1.4867   -1.2121 H         1 <0>         0.4302
     51 H19         2.0530    1.1205   -1.2110 H         1 <0>         0.1451
     52 H20         2.5950   -0.3304   -0.3340 H         1 <0>         0.1404
     53 H21         2.2568   -0.1017   -3.3589 H         1 <0>         0.1387
     54 H22         5.0167   -1.7105   -1.6115 H         1 <0>         0.1428
     55 H23         7.3270   -0.8695   -1.6245 H         1 <0>         0.1499
     56 H24         2.8816    4.0323   -3.9256 H         1 <0>         0.1545
     57 H25         3.4302    3.7688   -2.2536 H         1 <0>         0.1043
     58 H26         6.9353    3.3542   -3.7272 H         1 <0>         0.4241
     59 H27         8.5732    1.2690   -3.3181 H         1 <0>         0.4028
     60 H28         3.2576   -2.2830   -1.7250 H         1 <0>         0.3877
     61 H29         0.2017   -0.1436   -2.0240 H         1 <0>         0.4282
@<TRIPOS>BOND
     1    1    2 1
     2    1   33 1
     3    1   34 1
     4    1   35 1
     5    2    3 1
     6    2    4 1
     7    2   17 1
     8    3   36 1
     9    3   37 1
    10    3   38 1
    11    4    5 1
    12    4   39 1
    13    4   40 1
    14    5   10 ar
    15    5    6 ar
    16    6    7 ar
    17    6   41 1
    18    7    8 ar
    19    7   42 1
    20    8    9 ar
    21    8   11 1
    22    9   10 ar
    23    9   43 1
    24   10   44 1
    25   11   16 ar
    26   11   12 ar
    27   12   13 ar
    28   12   45 1
    29   13   14 ar
    30   13   46 1
    31   14   15 ar
    32   14   47 1
    33   15   16 ar
    34   15   48 1
    35   16   49 1
    36   17   18 1
    37   17   50 1
    38   17   61 1
    39   18   19 1
    40   18   51 1
    41   18   52 1
    42   19   20 1
    43   19   32 1
    44   19   53 1
    45   20   25 ar
    46   20   21 ar
    47   21   22 ar
    48   21   54 1
    49   22   23 ar
    50   22   55 1
    51   23   24 ar
    52   23   31 1
    53   24   30 1
    54   24   25 ar
    55   25   26 1
    56   26   27 1
    57   27   28 1
    58   27   56 1
    59   27   57 1
    60   28   29 2
    61   28   30 am
    62   30   58 1
    63   31   59 1
    64   32   60 1
@<TRIPOS>MOLECULE
CHEMBL839
   46    47     0     0     0
SMALL
USER_CHARGES

@<TRIPOS>ATOM
      1 C1         -0.0187    1.5258    0.0104 C.3       1 <0>        -0.1792
      2 C2          0.0021   -0.0041    0.0020 C.3       1 <0>         0.0548
      3 C3          0.7421   -0.5109    1.2415 C.3       1 <0>        -0.1797
      4 C4         -1.4333   -0.5336    0.0129 C.3       1 <0>        -0.1779
      5 N1          0.6897   -0.4778   -1.2066 N.4       1 <0>        -0.4982
      6 C5          2.0678    0.0307   -1.2170 C.3       1 <0>        -0.0513
      7 C6          2.7840   -0.4628   -2.4758 C.3       1 <0>         0.0876
      8 C7          4.2531   -0.0383   -2.4263 C.3       1 <0>         0.0299
      9 O1          4.9483   -0.5972   -3.5427 O.3       1 <0>        -0.2967
     10 C8          6.2733   -0.3147   -3.6487 C.ar      1 <0>         0.1557
     11 C9          6.8932    0.4798   -2.6938 C.ar      1 <0>        -0.2306
     12 C10         8.2402    0.7681   -2.8011 C.ar      1 <0>        -0.0462
     13 C11         8.9752    0.2668   -3.8584 C.ar      1 <0>        -0.1796
     14 C12         8.3604   -0.5290   -4.8162 C.ar      1 <0>         0.2046
     15 C13         7.0086   -0.8240   -4.7066 C.ar      1 <0>        -0.1524
     16 C14         6.3438   -1.6928   -5.7424 C.3       1 <0>        -0.0677
     17 C15         6.9852   -1.4422   -7.1077 C.3       1 <0>        -0.1402
     18 C16         8.4843   -1.4982   -6.9875 C.2       1 <0>         0.5197
     19 O2          9.1420   -1.9544   -7.8987 O.2       1 <0>        -0.5141
     20 N2          9.1012   -1.0387   -5.8869 N.am      1 <0>        -0.6634
     21 O3          2.1628    0.1050   -3.6307 O.3       1 <0>        -0.5425
     22 H1          1.0039    1.9031    0.0027 H         1 <0>         0.0806
     23 H2         -0.5459    1.8868   -0.8726 H         1 <0>         0.0837
     24 H3         -0.5289    1.8773    0.9072 H         1 <0>         0.1073
     25 H4          0.2319   -0.1594    2.1383 H         1 <0>         0.1074
     26 H5          0.7568   -1.6008    1.2356 H         1 <0>         0.0838
     27 H6          1.7647   -0.1336    1.2338 H         1 <0>         0.0812
     28 H7         -1.9605   -0.1726   -0.8702 H         1 <0>         0.0835
     29 H8         -1.4185   -1.6235    0.0069 H         1 <0>         0.0834
     30 H9         -1.9435   -0.1821    0.9097 H         1 <0>         0.1078
     31 H10         0.7033   -1.4867   -1.2121 H         1 <0>         0.4288
     32 H11         2.0530    1.1205   -1.2110 H         1 <0>         0.1420
     33 H12         2.5950   -0.3304   -0.3340 H         1 <0>         0.1477
     34 H13         2.7213   -1.5498   -2.5270 H         1 <0>         0.1346
     35 H14         4.3186    1.0490   -2.4647 H         1 <0>         0.0787
     36 H15         4.7039   -0.3970   -1.5010 H         1 <0>         0.0830
     37 H16         6.3217    0.8733   -1.8662 H         1 <0>         0.1277
     38 H17         8.7197    1.3870   -2.0572 H         1 <0>         0.1357
     39 H18        10.0278    0.4942   -3.9401 H         1 <0>         0.1357
     40 H19         6.4669   -2.7411   -5.4702 H         1 <0>         0.0823
     41 H20         5.2817   -1.4525   -5.7905 H         1 <0>         0.0951
     42 H21         6.6496   -2.2045   -7.8107 H         1 <0>         0.1131
     43 H22         6.6877   -0.4590   -7.4724 H         1 <0>         0.1054
     44 H23        10.0690   -1.0709   -5.8309 H         1 <0>         0.4162
     45 H24         2.1814    1.0716   -3.6522 H         1 <0>         0.3903
     46 H25         0.2017   -0.1436   -2.0240 H         1 <0>         0.4323
@<TRIPOS>BOND
     1    1    2 1
     2    1   22 1
     3    1   23 1
     4    1   24 1
     5    2    3 1
     6    2    4 1
     7    2    5 1
     8    3   25 1
     9    3   26 1
    10    3   27 1
    11    4   28 1
    12    4   29 1
    13    4   30 1
    14    5    6 1
    15    5   31 1
    16    5   46 1
    17    6    7 1
    18    6   32 1
    19    6   33 1
    20    7    8 1
    21    7   21 1
    22    7   34 1
    23    8    9 1
    24    8   35 1
    25    8   36 1
    26    9   10 1
    27   10   15 ar
    28   10   11 ar
    29   11   12 ar
    30   11   37 1
    31   12   13 ar
    32   12   38 1
    33   13   14 ar
    34   13   39 1
    35   14   20 1
    36   14   15 ar
    37   15   16 1
    38   16   17 1
    39   16   40 1
    40   16   41 1
    41   17   18 1
    42   17   42 1
    43   17   43 1
    44   18   19 2
    45   18   20 am
    46   20   44 1
    47   21   45 1
@<TRIPOS>MOLECULE
CHEMBL839__1
   46    47     0     0     0
SMALL
USER_CHARGES

@<TRIPOS>ATOM
      1 C1         -0.0187    1.5258    0.0104 C.3       1 <0>        -0.1797
      2 C2          0.0021   -0.0041    0.0020 C.3       1 <0>         0.0549
      3 C3          0.7421   -0.5109    1.2415 C.3       1 <0>        -0.1793
      4 C4         -1.4333   -0.5336    0.0129 C.3       1 <0>        -0.1779
      5 N1          0.6897   -0.4778   -1.2066 N.4       1 <0>        -0.4977
      6 C5          2.0678    0.0307   -1.2170 C.3       1 <0>        -0.0516
      7 C6          2.7840   -0.4628   -2.4758 C.3       1 <0>         0.0874
      8 C7          4.2193    0.0668   -2.4867 C.3       1 <0>         0.0299
      9 O1          4.8516   -0.2959   -3.7158 O.3       1 <0>        -0.2966
     10 C8          6.1400    0.1007   -3.8873 C.ar      1 <0>         0.1556
     11 C9          6.7847    0.8197   -2.8899 C.ar      1 <0>        -0.2306
     12 C10         8.0944    1.2240   -3.0638 C.ar      1 <0>        -0.0462
     13 C11         8.7674    0.9142   -4.2301 C.ar      1 <0>        -0.1795
     14 C12         8.1277    0.1947   -5.2310 C.ar      1 <0>         0.2045
     15 C13         6.8138   -0.2169   -5.0554 C.ar      1 <0>        -0.1524
     16 C14         6.1227   -1.0031   -6.1387 C.3       1 <0>        -0.0669
     17 C15         6.6245   -0.5389   -7.5065 C.3       1 <0>        -0.1404
     18 C16         8.1287   -0.4910   -7.5111 C.2       1 <0>         0.5197
     19 O2          8.7345   -0.7801   -8.5213 O.2       1 <0>        -0.5140
     20 N2          8.8058   -0.1214   -6.4122 N.am      1 <0>        -0.6632
     21 O3          2.8033   -1.8916   -2.4837 O.3       1 <0>        -0.5430
     22 H1          1.0039    1.9031    0.0027 H         1 <0>         0.0812
     23 H2         -0.5459    1.8868   -0.8726 H         1 <0>         0.0839
     24 H3         -0.5289    1.8773    0.9072 H         1 <0>         0.1074
     25 H4          0.2319   -0.1594    2.1383 H         1 <0>         0.1074
     26 H5          0.7568   -1.6008    1.2356 H         1 <0>         0.0836
     27 H6          1.7647   -0.1336    1.2338 H         1 <0>         0.0807
     28 H7         -1.9605   -0.1726   -0.8702 H         1 <0>         0.0835
     29 H8         -1.4185   -1.6235    0.0069 H         1 <0>         0.0834
     30 H9         -1.9435   -0.1821    0.9097 H         1 <0>         0.1078
     31 H10         0.7033   -1.4867   -1.2121 H         1 <0>         0.4318
     32 H11         2.0530    1.1205   -1.2110 H         1 <0>         0.1483
     33 H12         2.5950   -0.3304   -0.3340 H         1 <0>         0.1415
     34 H13         2.2568   -0.1017   -3.3589 H         1 <0>         0.1354
     35 H14         4.2068    1.1525   -2.3912 H         1 <0>         0.0833
     36 H15         4.7722   -0.3649   -1.6524 H         1 <0>         0.0785
     37 H16         6.2616    1.0637   -1.9771 H         1 <0>         0.1277
     38 H17         8.5932    1.7838   -2.2864 H         1 <0>         0.1358
     39 H18         9.7909    1.2319   -4.3636 H         1 <0>         0.1357
     40 H19         6.3403   -2.0638   -6.0128 H         1 <0>         0.0831
     41 H20         5.0465   -0.8432   -6.0733 H         1 <0>         0.0938
     42 H21         6.2821   -1.2343   -8.2729 H         1 <0>         0.1131
     43 H22         6.2299    0.4547   -7.7188 H         1 <0>         0.1051
     44 H23         9.7748   -0.0839   -6.4360 H         1 <0>         0.4162
     45 H24         3.2576   -2.2830   -1.7250 H         1 <0>         0.3899
     46 H25         0.2017   -0.1436   -2.0240 H         1 <0>         0.4290
@<TRIPOS>BOND
     1    1    2 1
     2    1   22 1
     3    1   23 1
     4    1   24 1
     5    2    3 1
     6    2    4 1
     7    2    5 1
     8    3   25 1
     9    3   26 1
    10    3   27 1
    11    4   28 1
    12    4   29 1
    13    4   30 1
    14    5    6 1
    15    5   31 1
    16    5   46 1
    17    6    7 1
    18    6   32 1
    19    6   33 1
    20    7    8 1
    21    7   21 1
    22    7   34 1
    23    8    9 1
    24    8   35 1
    25    8   36 1
    26    9   10 1
    27   10   15 ar
    28   10   11 ar
    29   11   12 ar
    30   11   37 1
    31   12   13 ar
    32   12   38 1
    33   13   14 ar
    34   13   39 1
    35   14   20 1
    36   14   15 ar
    37   15   16 1
    38   16   17 1
    39   16   40 1
    40   16   41 1
    41   17   18 1
    42   17   42 1
    43   17   43 1
    44   18   19 2
    45   18   20 am
    46   20   44 1
    47   21   45 1
@<TRIPOS>MOLECULE
CHEMBL459645
   62    64     0     0     0
SMALL
USER_CHARGES

@<TRIPOS>ATOM
      1 C1         -0.0187    1.5258    0.0104 C.3       1 <0>        -0.1458
      2 C2          0.0021   -0.0041    0.0020 C.3       1 <0>        -0.1237
      3 C3          0.7421   -0.5109    1.2415 C.3       1 <0>         0.0521
      4 O1          0.7614   -1.9398    1.2337 O.3       1 <0>        -0.2622
      5 C4          1.3839   -2.5528    2.2710 C.ar      1 <0>         0.1609
      6 C5          1.9597   -1.7999    3.2796 C.ar      1 <0>        -0.2189
      7 C6          2.5970   -2.4363    4.3423 C.ar      1 <0>        -0.0319
      8 C7          2.6560   -3.8319    4.3920 C.ar      1 <0>        -0.1630
      9 C8          2.0914   -4.5808    3.4017 C.ar      1 <0>        -0.0493
     10 C9          1.4423   -3.9552    2.3300 C.ar      1 <0>        -0.1549
     11 C10         0.8287   -4.7635    1.2671 C.2       1 <0>         0.5181
     12 O2          0.8805   -5.9850    1.3201 O.co2     1 <0>        -0.6931
     13 O3          0.2658   -4.2150    0.3290 O.co2     1 <0>        -0.6645
     14 C11         3.2143   -1.6317    5.4224 C.ar      1 <0>        -0.0565
     15 C12         3.1524   -0.2386    5.3784 C.ar      1 <0>        -0.0688
     16 C13         3.7268    0.5075    6.3844 C.ar      1 <0>        -0.1752
     17 C14         4.3679   -0.1270    7.4430 C.ar      1 <0>         0.1846
     18 C15         4.4312   -1.5156    7.4888 C.ar      1 <0>        -0.1863
     19 C16         3.8533   -2.2661    6.4881 C.ar      1 <0>        -0.0696
     20 N1          4.9483    0.6301    8.4597 N.pl3     1 <0>        -0.7513
     21 C17         5.6239   -0.0371    9.5754 C.3       1 <0>         0.1055
     22 C18         6.1685    1.0145   10.5442 C.3       1 <0>        -0.0200
     23 N2          6.8459    0.3454   11.6629 N.4       1 <0>        -0.5010
     24 C19         7.3688    1.3551   12.5931 C.3       1 <0>        -0.0414
     25 C20         8.0743    0.6582   13.7582 C.3       1 <0>         0.1360
     26 H1          8.8979    0.0552   13.3760 H         1 <0>         0.1356
     27 C21         8.6107    1.6940   14.7124 C.ar      1 <0>        -0.1300
     28 C22         7.7933    2.2142   15.6988 C.ar      1 <0>        -0.1030
     29 C23         8.2846    3.1642   16.5744 C.ar      1 <0>        -0.0967
     30 C24         9.5935    3.5951   16.4641 C.ar      1 <0>        -0.0916
     31 C25        10.4117    3.0750   15.4774 C.ar      1 <0>        -0.0316
     32 C26         9.9211    2.1195   14.6050 C.ar      1 <0>        -0.0944
     33 Cl1        12.0555    3.6156   15.3382 Cl        1 <0>        -0.0485
     34 O4          7.1448   -0.1841   14.4427 O.3       1 <0>        -0.5447
     35 H2          1.0039    1.9031    0.0027 H         1 <0>         0.0530
     36 H3         -0.5459    1.8868   -0.8726 H         1 <0>         0.0618
     37 H4         -0.5289    1.8773    0.9072 H         1 <0>         0.0530
     38 H5         -1.0205   -0.3814    0.0098 H         1 <0>         0.0757
     39 H6          0.5123   -0.3556   -0.8948 H         1 <0>         0.0757
     40 H7          1.7647   -0.1336    1.2338 H         1 <0>         0.0512
     41 H8          0.2319   -0.1594    2.1383 H         1 <0>         0.0511
     42 H9          1.9153   -0.7214    3.2426 H         1 <0>         0.1215
     43 H10         3.1515   -4.3197    5.2184 H         1 <0>         0.1158
     44 H11         2.1411   -5.6587    3.4464 H         1 <0>         0.1349
     45 H12         2.6550    0.2546    4.5564 H         1 <0>         0.1281
     46 H13         3.6795    1.5859    6.3506 H         1 <0>         0.1211
     47 H14         4.9301   -2.0061    8.3115 H         1 <0>         0.1155
     48 H15         3.8985   -3.3444    6.5265 H         1 <0>         0.1309
     49 H16         4.9049    1.5986    8.4284 H         1 <0>         0.4031
     50 H17         4.9149   -0.6796   10.0975 H         1 <0>         0.0793
     51 H18         6.4475   -0.6401    9.1931 H         1 <0>         0.0793
     52 H19         6.8775    1.6570   10.0220 H         1 <0>         0.1387
     53 H20         5.3449    1.6175   10.9264 H         1 <0>         0.1379
     54 H21         6.1896   -0.2493   12.1462 H         1 <0>         0.4349
     55 H22         8.0777    1.9976   12.0709 H         1 <0>         0.1467
     56 H23         6.5452    1.9581   12.9753 H         1 <0>         0.1389
     57 H24         6.7705    1.8784   15.7850 H         1 <0>         0.1303
     58 H25         7.6457    3.5701   17.3447 H         1 <0>         0.1422
     59 H26         9.9770    4.3379   17.1478 H         1 <0>         0.1429
     60 H27        10.5607    1.7098   13.8372 H         1 <0>         0.1392
     61 H28         6.3842    0.2865   14.8101 H         1 <0>         0.3892
     62 H29         7.6083   -0.2128   11.3090 H         1 <0>         0.4327
@<TRIPOS>BOND
     1    1    2 1
     2    1   35 1
     3    1   36 1
     4    1   37 1
     5    2    3 1
     6    2   38 1
     7    2   39 1
     8    3    4 1
     9    3   40 1
    10    3   41 1
    11    4    5 1
    12    5   10 ar
    13    5    6 ar
    14    6    7 ar
    15    6   42 1
    16    7    8 ar
    17    7   14 1
    18    8    9 ar
    19    8   43 1
    20    9   10 ar
    21    9   44 1
    22   10   11 1
    23   11   12 2
    24   11   13 1
    25   14   19 ar
    26   14   15 ar
    27   15   16 ar
    28   15   45 1
    29   16   17 ar
    30   16   46 1
    31   17   18 ar
    32   17   20 1
    33   18   19 ar
    34   18   47 1
    35   19   48 1
    36   20   21 1
    37   20   49 1
    38   21   22 1
    39   21   50 1
    40   21   51 1
    41   22   23 1
    42   22   52 1
    43   22   53 1
    44   23   24 1
    45   23   54 1
    46   23   62 1
    47   24   25 1
    48   24   55 1
    49   24   56 1
    50   25   26 1
    51   25   27 1
    52   25   34 1
    53   27   32 ar
    54   27   28 ar
    55   28   29 ar
    56   28   57 1
    57   29   30 ar
    58   29   58 1
    59   30   31 ar
    60   30   59 1
    61   31   32 ar
    62   31   33 1
    63   32   60 1
    64   34   61 1
@<TRIPOS>MOLECULE
CHEMBL466088
   73    76     0     0     0
SMALL
USER_CHARGES

@<TRIPOS>ATOM
      1 C1         -0.0541    1.5197   -0.0108 C.3       1 <0>        -0.1862
      2 C2         -0.0250   -0.0101   -0.0153 C.3       1 <0>         0.0302
      3 C3          0.7122   -0.5098    1.2288 C.3       1 <0>        -0.1011
      4 C4          0.6348   -2.0136    1.2884 C.ar      1 <0>        -0.1307
      5 C5         -0.4186   -2.6248    1.9433 C.ar      1 <0>        -0.0838
      6 C6         -0.4925   -4.0028    1.9997 C.ar      1 <0>        -0.1057
      7 C7          0.4924   -4.7747    1.3975 C.ar      1 <0>         0.1513
      8 C8          1.5488   -4.1578    0.7402 C.ar      1 <0>        -0.1268
      9 C9          1.6143   -2.7794    0.6832 C.ar      1 <0>        -0.1188
     10 N1          0.4207   -6.1710    1.4532 N.am      1 <0>        -0.6653
     11 C10        -0.0722   -6.7771    2.5514 C.2       1 <0>         0.5145
     12 O1         -0.5308   -6.1127    3.4565 O.2       1 <0>        -0.4903
     13 C11        -0.0534   -8.2805    2.6548 C.3       1 <0>        -0.0993
     14 C12        -0.6574   -8.7011    3.9698 C.cat     1 <0>         0.3155
     15 N2         -1.9300   -8.8732    4.2019 N.pl3     1 <0>        -0.4637
     16 C13        -2.1002   -9.2472    5.4787 C.2       1 <0>         0.0144
     17 C14        -0.8869   -9.3093    6.0599 C.2       1 <0>         0.0355
     18 N3          0.0291   -8.9682    5.1016 N.pl3     1 <0>        -0.3878
     19 C15         1.4826   -8.9021    5.2728 C.3       1 <0>         0.1354
     20 C16         1.8863   -7.4872    5.5985 C.ar      1 <0>        -0.1441
     21 C17         2.1929   -6.6042    4.5801 C.ar      1 <0>        -0.0895
     22 C18         2.5632   -5.3063    4.8788 C.ar      1 <0>        -0.1088
     23 C19         2.6265   -4.8913    6.1959 C.ar      1 <0>        -0.0885
     24 C20         2.3190   -5.7741    7.2142 C.ar      1 <0>        -0.1115
     25 C21         1.9445   -7.0707    6.9153 C.ar      1 <0>        -0.0863
     26 N4          0.6706   -0.4831   -1.2196 N.4       1 <0>        -0.5032
     27 C22        -0.1015   -0.1056   -2.4110 C.3       1 <0>        -0.0474
     28 C23         0.6229   -0.5982   -3.6654 C.3       1 <0>         0.0877
     29 H1          0.7220   -1.6829   -3.6253 H         1 <0>         0.1330
     30 C24        -0.1812   -0.2050   -4.9063 C.3       1 <0>         0.0298
     31 O2          0.4331   -0.7644   -6.0689 O.3       1 <0>        -0.3031
     32 C25        -0.1607   -0.5083   -7.2642 C.ar      1 <0>         0.1144
     33 C26        -1.3077    0.2703   -7.3175 C.ar      1 <0>        -0.2094
     34 C27        -1.9091    0.5296   -8.5338 C.ar      1 <0>        -0.0797
     35 C28        -1.3692    0.0135   -9.6974 C.ar      1 <0>        -0.1455
     36 C29        -0.2263   -0.7631   -9.6468 C.ar      1 <0>        -0.0759
     37 C30         0.3824   -1.0202   -8.4337 C.ar      1 <0>        -0.1442
     38 O3          1.9206   -0.0034   -3.7306 O.3       1 <0>        -0.5433
     39 H2          0.9665    1.9025   -0.0149 H         1 <0>         0.0864
     40 H3         -0.5793    1.8757   -0.8971 H         1 <0>         0.0840
     41 H4         -0.5701    1.8706    0.8828 H         1 <0>         0.1105
     42 H5         -1.0455   -0.3929   -0.0111 H         1 <0>         0.1413
     43 H6          1.7566   -0.2014    1.1807 H         1 <0>         0.1016
     44 H7          0.2491   -0.0865    2.1201 H         1 <0>         0.1242
     45 H8         -1.1843   -2.0239    2.4115 H         1 <0>         0.1355
     46 H9         -1.3151   -4.4795    2.5119 H         1 <0>         0.1440
     47 H10         2.3165   -4.7554    0.2711 H         1 <0>         0.1382
     48 H11         2.4334   -2.2991    0.1686 H         1 <0>         0.1315
     49 H12         0.7258   -6.7027    0.7014 H         1 <0>         0.4216
     50 H13        -0.6319   -8.7082    1.8359 H         1 <0>         0.1557
     51 H14         0.9754   -8.6358    2.5972 H         1 <0>         0.1501
     52 H15        -3.0446   -9.4611    5.9568 H         1 <0>         0.2285
     53 H16        -0.6768   -9.5802    7.0840 H         1 <0>         0.2268
     54 H17         1.7829   -9.5621    6.0867 H         1 <0>         0.1386
     55 H18         1.9717   -9.2165    4.3508 H         1 <0>         0.1231
     56 H19         2.1435   -6.9284    3.5511 H         1 <0>         0.1086
     57 H20         2.8035   -4.6166    4.0832 H         1 <0>         0.1231
     58 H21         2.9165   -3.8775    6.4293 H         1 <0>         0.1312
     59 H22         2.3687   -5.4500    8.2432 H         1 <0>         0.1351
     60 H23         1.7007   -7.7594    7.7108 H         1 <0>         0.1300
     61 H24         1.5869   -0.0631   -1.2656 H         1 <0>         0.4310
     62 H25        -1.0913   -0.5592   -2.3613 H         1 <0>         0.1464
     63 H26        -0.2006    0.9792   -2.4511 H         1 <0>         0.1439
     64 H27        -1.1989   -0.5844   -4.8149 H         1 <0>         0.0804
     65 H28        -0.2048    0.8811   -4.9948 H         1 <0>         0.0774
     66 H29        -1.7303    0.6730   -6.4089 H         1 <0>         0.1228
     67 H30        -2.8021    1.1356   -8.5759 H         1 <0>         0.1292
     68 H31        -1.8411    0.2171  -10.6473 H         1 <0>         0.1308
     69 H32         0.1933   -1.1654  -10.5570 H         1 <0>         0.1360
     70 H33         1.2776   -1.6232   -8.3952 H         1 <0>         0.1329
     71 H34         1.9090    0.9628   -3.7687 H         1 <0>         0.3915
     72 H35         0.7623   -1.4872   -1.1825 H         1 <0>         0.4251
     73 H36        -2.6407   -8.7500    3.5534 H         1 <0>         0.4615
@<TRIPOS>BOND
     1    1    2 1
     2    1   39 1
     3    1   40 1
     4    1   41 1
     5    2    3 1
     6    2   26 1
     7    2   42 1
     8    3    4 1
     9    3   43 1
    10    3   44 1
    11    4    9 ar
    12    4    5 ar
    13    5    6 ar
    14    5   45 1
    15    6    7 ar
    16    6   46 1
    17    7    8 ar
    18    7   10 1
    19    8    9 ar
    20    8   47 1
    21    9   48 1
    22   10   11 am
    23   10   49 1
    24   11   12 2
    25   11   13 1
    26   13   14 1
    27   13   50 1
    28   13   51 1
    29   14   18 1
    30   14   15 2
    31   15   16 1
    32   15   73 1
    33   16   17 2
    34   16   52 1
    35   17   18 1
    36   17   53 1
    37   18   19 1
    38   19   20 1
    39   19   54 1
    40   19   55 1
    41   20   25 ar
    42   20   21 ar
    43   21   22 ar
    44   21   56 1
    45   22   23 ar
    46   22   57 1
    47   23   24 ar
    48   23   58 1
    49   24   25 ar
    50   24   59 1
    51   25   60 1
    52   26   27 1
    53   26   61 1
    54   26   72 1
    55   27   28 1
    56   27   62 1
    57   27   63 1
    58   28   29 1
    59   28   30 1
    60   28   38 1
    61   30   31 1
    62   30   64 1
    63   30   65 1
    64   31   32 1
    65   32   37 ar
    66   32   33 ar
    67   33   34 ar
    68   33   66 1
    69   34   35 ar
    70   34   67 1
    71   35   36 ar
    72   35   68 1
    73   36   37 ar
    74   36   69 1
    75   37   70 1
    76   38   71 1
@<TRIPOS>MOLECULE
CHEMBL466088__1
   72    75     0     0     0
SMALL
USER_CHARGES

@<TRIPOS>ATOM
      1 C1          1.4356    1.6428    0.3205 C.3       1 <0>        -0.1841
      2 C2          1.3245    0.1175    0.2771 C.3       1 <0>         0.0287
      3 C3          2.0102   -0.4082   -0.9856 C.3       1 <0>        -0.0952
      4 C4          2.0087   -1.9151   -0.9678 C.ar      1 <0>        -0.1484
      5 C5          3.0594   -2.5992   -0.3844 C.ar      1 <0>        -0.0807
      6 C6          3.0611   -3.9802   -0.3665 C.ar      1 <0>        -0.1114
      7 C7          2.0058   -4.6817   -0.9346 C.ar      1 <0>         0.1705
      8 C8          0.9519   -3.9918   -1.5193 C.ar      1 <0>        -0.1380
      9 C9          0.9539   -2.6107   -1.5297 C.ar      1 <0>        -0.1186
     10 N1          2.0047   -6.0809   -0.9185 N.am      1 <0>        -0.6789
     11 C10         2.5598   -6.7433    0.1157 C.2       1 <0>         0.5201
     12 O1          2.9768   -6.1298    1.0752 O.2       1 <0>        -0.4962
     13 C11         2.6623   -8.2464    0.0798 C.3       1 <0>        -0.0570
     14 C12         3.3165   -8.7357    1.3462 C.2       1 <0>         0.2151
     15 N2          4.6019   -8.8188    1.5553 N.2       1 <0>        -0.4729
     16 C13         4.8194   -9.2945    2.7903 C.2       1 <0>        -0.0218
     17 C14         3.6233   -9.5146    3.3686 C.2       1 <0>        -0.0437
     18 N3          2.6695   -9.1552    2.4549 N.pl3     1 <0>        -0.4435
     19 C15         1.2180   -9.2170    2.6434 C.3       1 <0>         0.1468
     20 C16         0.6946  -10.5176    2.0908 C.ar      1 <0>        -0.1212
     21 C17         0.1958  -10.5704    0.8026 C.ar      1 <0>        -0.1076
     22 C18        -0.2843  -11.7635    0.2957 C.ar      1 <0>        -0.1170
     23 C19        -0.2653  -12.9038    1.0767 C.ar      1 <0>        -0.1054
     24 C20         0.2343  -12.8512    2.3646 C.ar      1 <0>        -0.1146
     25 C21         0.7184  -11.6591    2.8700 C.ar      1 <0>        -0.0956
     26 N4         -0.0925   -0.2700    0.2622 N.4       1 <0>        -0.5026
     27 C22        -0.7227    0.1298    1.5275 C.3       1 <0>        -0.0466
     28 C23        -2.1985   -0.2738    1.5120 C.3       1 <0>         0.0868
     29 H1         -2.2785   -1.3541    1.3917 H         1 <0>         0.1342
     30 C24        -2.8549    0.1426    2.8298 C.3       1 <0>         0.0303
     31 O2         -4.2008   -0.3364    2.8638 O.3       1 <0>        -0.3025
     32 C25        -4.9297   -0.0502    3.9745 C.ar      1 <0>         0.1168
     33 C26        -4.3631    0.6817    5.0079 C.ar      1 <0>        -0.2095
     34 C27        -5.1063    0.9717    6.1357 C.ar      1 <0>        -0.0798
     35 C28        -6.4137    0.5329    6.2352 C.ar      1 <0>        -0.1477
     36 C29        -6.9806   -0.1970    5.2068 C.ar      1 <0>        -0.0766
     37 C30        -6.2435   -0.4844    4.0743 C.ar      1 <0>        -0.1449
     38 O3         -2.8588    0.3768    0.4245 O.3       1 <0>        -0.5428
     39 H2          2.4870    1.9303    0.3315 H         1 <0>         0.1096
     40 H3          0.9521    2.0675   -0.5592 H         1 <0>         0.0847
     41 H4          0.9471    2.0173    1.2201 H         1 <0>         0.0813
     42 H5          1.8080   -0.3073    1.1568 H         1 <0>         0.1414
     43 H6          1.4722   -0.0547   -1.8652 H         1 <0>         0.0984
     44 H7          3.0378   -0.0462   -1.0184 H         1 <0>         0.1221
     45 H8          3.8798   -2.0530    0.0572 H         1 <0>         0.1331
     46 H9          3.8823   -4.5139    0.0886 H         1 <0>         0.1444
     47 H10         0.1300   -4.5345   -1.9623 H         1 <0>         0.1353
     48 H11         0.1327   -2.0734   -1.9805 H         1 <0>         0.1265
     49 H12         1.6044   -6.5741   -1.6516 H         1 <0>         0.4176
     50 H13         1.6644   -8.6768   -0.0034 H         1 <0>         0.1116
     51 H14         3.2614   -8.5493   -0.7790 H         1 <0>         0.1325
     52 H15         5.7846   -9.4703    3.2419 H         1 <0>         0.1729
     53 H16         3.4499   -9.8972    4.3636 H         1 <0>         0.1763
     54 H17         0.9867   -9.1547    3.7067 H         1 <0>         0.1048
     55 H18         0.7479   -8.3844    2.1200 H         1 <0>         0.0930
     56 H19         0.1809   -9.6795    0.1924 H         1 <0>         0.1184
     57 H20        -0.6746  -11.8045   -0.7105 H         1 <0>         0.1278
     58 H21        -0.6411  -13.8358    0.6809 H         1 <0>         0.1282
     59 H22         0.2489  -13.7421    2.9749 H         1 <0>         0.1286
     60 H23         1.1122  -11.6189    3.8749 H         1 <0>         0.1238
     61 H24        -0.5587    0.1894   -0.5057 H         1 <0>         0.4293
     62 H25        -0.2190   -0.3665    2.3570 H         1 <0>         0.1463
     63 H26        -0.6427    1.2102    1.6478 H         1 <0>         0.1423
     64 H27        -2.2968   -0.2826    3.6640 H         1 <0>         0.0812
     65 H28        -2.8540    1.2298    2.9086 H         1 <0>         0.0769
     66 H29        -3.3417    1.0240    4.9309 H         1 <0>         0.1235
     67 H30        -4.6656    1.5414    6.9405 H         1 <0>         0.1285
     68 H31        -6.9930    0.7604    7.1179 H         1 <0>         0.1295
     69 H32        -8.0019   -0.5390    5.2871 H         1 <0>         0.1350
     70 H33        -6.6882   -1.0508    3.2694 H         1 <0>         0.1329
     71 H34        -2.8275    1.3424    0.4663 H         1 <0>         0.3896
     72 H35        -0.1665   -1.2701    0.1508 H         1 <0>         0.4280
@<TRIPOS>BOND
     1    1    2 1
     2    1   39 1
     3    1   40 1
     4    1   41 1
     5    2    3 1
     6    2   26 1
     7    2   42 1
     8    3    4 1
     9    3   43 1
    10    3   44 1
    11    4    9 ar
    12    4    5 ar
    13    5    6 ar
    14    5   45 1
    15    6    7 ar
    16    6   46 1
    17    7    8 ar
    18    7   10 1
    19    8    9 ar
    20    8   47 1
    21    9   48 1
    22   10   11 am
    23   10   49 1
    24   11   12 2
    25   11   13 1
    26   13   14 1
    27   13   50 1
    28   13   51 1
    29   14   18 1
    30   14   15 2
    31   15   16 1
    32   16   17 2
    33   16   52 1
    34   17   18 1
    35   17   53 1
    36   18   19 1
    37   19   20 1
    38   19   54 1
    39   19   55 1
    40   20   25 ar
    41   20   21 ar
    42   21   22 ar
    43   21   56 1
    44   22   23 ar
    45   22   57 1
    46   23   24 ar
    47   23   58 1
    48   24   25 ar
    49   24   59 1
    50   25   60 1
    51   26   27 1
    52   26   61 1
    53   26   72 1
    54   27   28 1
    55   27   62 1
    56   27   63 1
    57   28   29 1
    58   28   30 1
    59   28   38 1
    60   30   31 1
    61   30   64 1
    62   30   65 1
    63   31   32 1
    64   32   37 ar
    65   32   33 ar
    66   33   34 ar
    67   33   66 1
    68   34   35 ar
    69   34   67 1
    70   35   36 ar
    71   35   68 1
    72   36   37 ar
    73   36   69 1
    74   37   70 1
    75   38   71 1
@<TRIPOS>MOLECULE
CHEMBL466088__2
   73    76     0     0     0
SMALL
USER_CHARGES

@<TRIPOS>ATOM
      1 C1         -0.0219    1.5176    0.0500 C.3       1 <0>        -0.1866
      2 C2         -0.0020   -0.0122    0.0334 C.3       1 <0>         0.0301
      3 C3          0.7202   -0.4992   -1.2244 C.3       1 <0>        -0.1012
      4 C4          0.6331   -2.0016   -1.3038 C.ar      1 <0>        -0.1315
      5 C5          1.6107   -2.7815   -0.7136 C.ar      1 <0>        -0.1185
      6 C6          1.5338   -4.1586   -0.7845 C.ar      1 <0>        -0.1046
      7 C7          0.4730   -4.7600   -1.4490 C.ar      1 <0>         0.1511
      8 C8         -0.5074   -3.9740   -2.0402 C.ar      1 <0>        -0.1265
      9 C9         -0.4273   -2.5974   -1.9616 C.ar      1 <0>        -0.0822
     10 N1          0.3924   -6.1550   -1.5230 N.am      1 <0>        -0.6649
     11 C10         1.5168   -6.8902   -1.6309 C.2       1 <0>         0.5150
     12 O1          2.6016   -6.3503   -1.5794 O.2       1 <0>        -0.4915
     13 C11         1.4261   -8.3831   -1.8153 C.3       1 <0>        -0.0997
     14 C12         2.8140   -8.9631   -1.9077 C.cat     1 <0>         0.3159
     15 N2          3.5634   -9.3069   -0.8962 N.pl3     1 <0>        -0.4639
     16 C13         4.7308   -9.7843   -1.3528 C.2       1 <0>         0.0141
     17 C14         4.7036   -9.7344   -2.6983 C.2       1 <0>         0.0355
     18 N3          3.4858   -9.2184   -3.0509 N.pl3     1 <0>        -0.3877
     19 C15         3.0026   -8.9843   -4.4140 C.3       1 <0>         0.1353
     20 C16         3.2777   -7.5554   -4.8059 C.ar      1 <0>        -0.1440
     21 C17         2.3388   -6.5745   -4.5465 C.ar      1 <0>        -0.0893
     22 C18         2.5910   -5.2638   -4.9060 C.ar      1 <0>        -0.1087
     23 C19         3.7824   -4.9338   -5.5245 C.ar      1 <0>        -0.0886
     24 C20         4.7217   -5.9145   -5.7832 C.ar      1 <0>        -0.1117
     25 C21         4.4712   -7.2245   -5.4198 C.ar      1 <0>        -0.0864
     26 N4          0.7021   -0.5057    1.2244 N.4       1 <0>        -0.5039
     27 C22        -0.0562   -0.1400    2.4282 C.3       1 <0>        -0.0470
     28 C23         0.6772   -0.6540    3.6687 C.3       1 <0>         0.0866
     29 H1          1.6702   -0.2069    3.7150 H         1 <0>         0.1365
     30 C24        -0.1126   -0.2730    4.9225 C.3       1 <0>         0.0302
     31 O2          0.6282   -0.6498    6.0849 O.3       1 <0>        -0.3035
     32 C25         0.0632   -0.3798    7.2911 C.ar      1 <0>         0.1142
     33 C26        -1.1814    0.2299    7.3544 C.ar      1 <0>        -0.2092
     34 C27        -1.7539    0.5028    8.5817 C.ar      1 <0>        -0.0793
     35 C28        -1.0873    0.1693    9.7462 C.ar      1 <0>        -0.1454
     36 C29         0.1534   -0.4380    9.6858 C.ar      1 <0>        -0.0760
     37 C30         0.7274   -0.7186    8.4610 C.ar      1 <0>        -0.1445
     38 O3          0.7980   -2.0760    3.5956 O.3       1 <0>        -0.5444
     39 H2          1.0009    1.8943    0.0495 H         1 <0>         0.0861
     40 H3         -0.5444    1.8838   -0.8338 H         1 <0>         0.1111
     41 H4         -0.5365    1.8646    0.9461 H         1 <0>         0.0846
     42 H5         -1.0249   -0.3889    0.0339 H         1 <0>         0.1417
     43 H6          0.2511   -0.0611   -2.1054 H         1 <0>         0.1250
     44 H7          1.7668   -0.1977   -1.1822 H         1 <0>         0.1006
     45 H8          2.4354   -2.3132   -0.1969 H         1 <0>         0.1274
     46 H9          2.2980   -4.7672   -0.3240 H         1 <0>         0.1442
     47 H10        -1.3334   -4.4387   -2.5581 H         1 <0>         0.1379
     48 H11        -1.1915   -1.9857   -2.4177 H         1 <0>         0.1384
     49 H12        -0.4728   -6.5929   -1.4967 H         1 <0>         0.4219
     50 H13         0.9042   -8.8232   -0.9656 H         1 <0>         0.1558
     51 H14         0.8786   -8.6034   -2.7317 H         1 <0>         0.1502
     52 H15         5.5490  -10.1455   -0.7475 H         1 <0>         0.2284
     53 H16         5.4900  -10.0455   -3.3700 H         1 <0>         0.2267
     54 H17         3.5170   -9.6552   -5.1021 H         1 <0>         0.1386
     55 H18         1.9299   -9.1727   -4.4566 H         1 <0>         0.1232
     56 H19         1.4080   -6.8324   -4.0632 H         1 <0>         0.1087
     57 H20         1.8572   -4.4976   -4.7039 H         1 <0>         0.1234
     58 H21         3.9792   -3.9099   -5.8060 H         1 <0>         0.1310
     59 H22         5.6524   -5.6568   -6.2667 H         1 <0>         0.1350
     60 H23         5.2067   -7.9901   -5.6185 H         1 <0>         0.1299
     61 H24         0.7874   -1.5098    1.1728 H         1 <0>         0.4281
     62 H25        -0.1483    0.9447    2.4840 H         1 <0>         0.1511
     63 H26        -1.0492   -0.5870    2.3819 H         1 <0>         0.1400
     64 H27        -0.2814    0.8038    4.9324 H         1 <0>         0.0825
     65 H28        -1.0716   -0.7911    4.9192 H         1 <0>         0.0760
     66 H29        -1.7021    0.4912    6.4450 H         1 <0>         0.1230
     67 H30        -2.7227    0.9774    8.6315 H         1 <0>         0.1295
     68 H31        -1.5364    0.3839   10.7047 H         1 <0>         0.1309
     69 H32         0.6722   -0.6972   10.5969 H         1 <0>         0.1360
     70 H33         1.6945   -1.1970    8.4143 H         1 <0>         0.1325
     71 H34        -0.0488   -2.5409    3.5516 H         1 <0>         0.3878
     72 H35         1.6213   -0.0918    1.2673 H         1 <0>         0.4277
     73 H36         3.3154   -9.2295    0.0383 H         1 <0>         0.4614
@<TRIPOS>BOND
     1    1    2 1
     2    1   39 1
     3    1   40 1
     4    1   41 1
     5    2    3 1
     6    2   26 1
     7    2   42 1
     8    3    4 1
     9    3   43 1
    10    3   44 1
    11    4    9 ar
    12    4    5 ar
    13    5    6 ar
    14    5   45 1
    15    6    7 ar
    16    6   46 1
    17    7    8 ar
    18    7   10 1
    19    8    9 ar
    20    8   47 1
    21    9   48 1
    22   10   11 am
    23   10   49 1
    24   11   12 2
    25   11   13 1
    26   13   14 1
    27   13   50 1
    28   13   51 1
    29   14   18 1
    30   14   15 2
    31   15   16 1
    32   15   73 1
    33   16   17 2
    34   16   52 1
    35   17   18 1
    36   17   53 1
    37   18   19 1
    38   19   20 1
    39   19   54 1
    40   19   55 1
    41   20   25 ar
    42   20   21 ar
    43   21   22 ar
    44   21   56 1
    45   22   23 ar
    46   22   57 1
    47   23   24 ar
    48   23   58 1
    49   24   25 ar
    50   24   59 1
    51   25   60 1
    52   26   27 1
    53   26   61 1
    54   26   72 1
    55   27   28 1
    56   27   62 1
    57   27   63 1
    58   28   29 1
    59   28   30 1
    60   28   38 1
    61   30   31 1
    62   30   64 1
    63   30   65 1
    64   31   32 1
    65   32   37 ar
    66   32   33 ar
    67   33   34 ar
    68   33   66 1
    69   34   35 ar
    70   34   67 1
    71   35   36 ar
    72   35   68 1
    73   36   37 ar
    74   36   69 1
    75   37   70 1
    76   38   71 1
@<TRIPOS>MOLECULE
CHEMBL466088__3
   72    75     0     0     0
SMALL
USER_CHARGES

@<TRIPOS>ATOM
      1 C1         -0.3965    1.4133   -1.4297 C.3       1 <0>        -0.1846
      2 C2         -0.3452   -0.1107   -1.3046 C.3       1 <0>         0.0294
      3 C3         -1.7698   -0.6670   -1.2598 C.3       1 <0>        -0.0956
      4 C4         -1.7213   -2.1529   -1.0135 C.ar      1 <0>        -0.1494
      5 C5         -1.6545   -3.0276   -2.0824 C.ar      1 <0>        -0.1154
      6 C6         -1.6100   -4.3900   -1.8601 C.ar      1 <0>        -0.1101
      7 C7         -1.6319   -4.8811   -0.5613 C.ar      1 <0>         0.1703
      8 C8         -1.6986   -4.0000    0.5101 C.ar      1 <0>        -0.1377
      9 C9         -1.7380   -2.6386    0.2811 C.ar      1 <0>        -0.0819
     10 N1         -1.5874   -6.2609   -0.3326 N.am      1 <0>        -0.6786
     11 C10        -0.8964   -7.0606   -1.1689 C.2       1 <0>         0.5208
     12 O1         -0.2375   -6.5765   -2.0647 O.2       1 <0>        -0.4972
     13 C11        -0.9425   -8.5563   -0.9910 C.3       1 <0>        -0.0576
     14 C12        -0.0916   -9.2142   -2.0466 C.2       1 <0>         0.2157
     15 N2         -0.4772   -9.5129   -3.2570 N.2       1 <0>        -0.4732
     16 C13         0.5404  -10.0862   -3.9166 C.2       1 <0>        -0.0220
     17 C14         1.5966  -10.1449   -3.0832 C.2       1 <0>        -0.0437
     18 N3          1.1978   -9.5870   -1.8985 N.pl3     1 <0>        -0.4431
     19 C15         2.0162   -9.4270   -0.6940 C.3       1 <0>         0.1469
     20 C16         1.7832  -10.5943    0.2303 C.ar      1 <0>        -0.1214
     21 C17         0.8550  -10.4941    1.2498 C.ar      1 <0>        -0.1075
     22 C18         0.6413  -11.5648    2.0976 C.ar      1 <0>        -0.1169
     23 C19         1.3555  -12.7358    1.9257 C.ar      1 <0>        -0.1054
     24 C20         2.2831  -12.8363    0.9057 C.ar      1 <0>        -0.1147
     25 C21         2.4937  -11.7671    0.0552 C.ar      1 <0>        -0.0956
     26 N4          0.3641   -0.6735   -2.4614 N.4       1 <0>        -0.5040
     27 C22         1.7657   -0.2342   -2.4375 C.3       1 <0>        -0.0460
     28 C23         2.5044   -0.8203   -3.6423 C.3       1 <0>         0.0850
     29 H1          2.0312   -0.4754   -4.5617 H         1 <0>         0.1356
     30 C24         3.9642   -0.3628   -3.6175 C.3       1 <0>         0.0310
     31 O2          4.6247   -0.8131   -4.8020 O.3       1 <0>        -0.3018
     32 C25         5.9374   -0.4885   -4.9376 C.ar      1 <0>         0.1173
     33 C26         6.5781    0.2432   -3.9483 C.ar      1 <0>        -0.2098
     34 C27         7.9127    0.5715   -4.0884 C.ar      1 <0>        -0.0801
     35 C28         8.6097    0.1717   -5.2136 C.ar      1 <0>        -0.1481
     36 C29         7.9734   -0.5572   -6.2012 C.ar      1 <0>        -0.0765
     37 C30         6.6405   -0.8933   -6.0630 C.ar      1 <0>        -0.1447
     38 O3          2.4514   -2.2472   -3.5856 O.3       1 <0>        -0.5400
     39 H2          0.6184    1.8096   -1.4616 H         1 <0>         0.0819
     40 H3         -0.9216    1.6852   -2.3454 H         1 <0>         0.0850
     41 H4         -0.9228    1.8308   -0.5714 H         1 <0>         0.1093
     42 H5          0.1799   -0.3826   -0.3889 H         1 <0>         0.1402
     43 H6         -2.3236   -0.1832   -0.4553 H         1 <0>         0.1219
     44 H7         -2.2659   -0.4723   -2.2106 H         1 <0>         0.0982
     45 H8         -1.6375   -2.6451   -3.0923 H         1 <0>         0.1249
     46 H9         -1.5585   -5.0727   -2.6954 H         1 <0>         0.1446
     47 H10        -1.7162   -4.3789    1.5213 H         1 <0>         0.1351
     48 H11        -1.7857   -1.9527    1.1140 H         1 <0>         0.1334
     49 H12        -2.0538   -6.6417    0.4278 H         1 <0>         0.4178
     50 H13        -0.5619   -8.8166   -0.0033 H         1 <0>         0.1116
     51 H14        -1.9718   -8.9020   -1.0865 H         1 <0>         0.1323
     52 H15         0.5168  -10.4388   -4.9371 H         1 <0>         0.1726
     53 H16         2.5721  -10.5504   -3.3078 H         1 <0>         0.1761
     54 H17         3.0693   -9.3887   -0.9726 H         1 <0>         0.1047
     55 H18         1.7405   -8.5020   -0.1876 H         1 <0>         0.0932
     56 H19         0.2970   -9.5793    1.3841 H         1 <0>         0.1185
     57 H20        -0.0834  -11.4864    2.8945 H         1 <0>         0.1279
     58 H21         1.1891  -13.5721    2.5885 H         1 <0>         0.1282
     59 H22         2.8414  -13.7510    0.7716 H         1 <0>         0.1286
     60 H23         3.2157  -11.8468   -0.7440 H         1 <0>         0.1237
     61 H24         0.3267   -1.6810   -2.4213 H         1 <0>         0.4322
     62 H25         1.8061    0.8542   -2.4808 H         1 <0>         0.1487
     63 H26         2.2389   -0.5791   -1.5181 H         1 <0>         0.1385
     64 H27         4.0031    0.7255   -3.5711 H         1 <0>         0.0812
     65 H28         4.4614   -0.7817   -2.7426 H         1 <0>         0.0756
     66 H29         6.0339    0.5563   -3.0696 H         1 <0>         0.1232
     67 H30         8.4119    1.1411   -3.3185 H         1 <0>         0.1282
     68 H31         9.6529    0.4296   -5.3214 H         1 <0>         0.1293
     69 H32         8.5199   -0.8680   -7.0793 H         1 <0>         0.1350
     70 H33         6.1451   -1.4665   -6.8326 H         1 <0>         0.1332
     71 H34         2.8552   -2.6245   -2.7921 H         1 <0>         0.3889
     72 H35        -0.0740   -0.3542   -3.3124 H         1 <0>         0.4269
@<TRIPOS>BOND
     1    1    2 1
     2    1   39 1
     3    1   40 1
     4    1   41 1
     5    2    3 1
     6    2   26 1
     7    2   42 1
     8    3    4 1
     9    3   43 1
    10    3   44 1
    11    4    9 ar
    12    4    5 ar
    13    5    6 ar
    14    5   45 1
    15    6    7 ar
    16    6   46 1
    17    7    8 ar
    18    7   10 1
    19    8    9 ar
    20    8   47 1
    21    9   48 1
    22   10   11 am
    23   10   49 1
    24   11   12 2
    25   11   13 1
    26   13   14 1
    27   13   50 1
    28   13   51 1
    29   14   18 1
    30   14   15 2
    31   15   16 1
    32   16   17 2
    33   16   52 1
    34   17   18 1
    35   17   53 1
    36   18   19 1
    37   19   20 1
    38   19   54 1
    39   19   55 1
    40   20   25 ar
    41   20   21 ar
    42   21   22 ar
    43   21   56 1
    44   22   23 ar
    45   22   57 1
    46   23   24 ar
    47   23   58 1
    48   24   25 ar
    49   24   59 1
    50   25   60 1
    51   26   27 1
    52   26   61 1
    53   26   72 1
    54   27   28 1
    55   27   62 1
    56   27   63 1
    57   28   29 1
    58   28   30 1
    59   28   38 1
    60   30   31 1
    61   30   64 1
    62   30   65 1
    63   31   32 1
    64   32   37 ar
    65   32   33 ar
    66   33   34 ar
    67   33   66 1
    68   34   35 ar
    69   34   67 1
    70   35   36 ar
    71   35   68 1
    72   36   37 ar
    73   36   69 1
    74   37   70 1
    75   38   71 1
@<TRIPOS>MOLECULE
CHEMBL273006
   61    64     0     0     0
SMALL
USER_CHARGES

@<TRIPOS>ATOM
      1 C1         -2.3810    3.1066   -3.8777 C.ar      1 <0>        -0.0999
      2 C2         -1.1909    3.7629   -3.6251 C.ar      1 <0>        -0.1126
      3 C3         -0.0782    3.0469   -3.2248 C.ar      1 <0>        -0.1021
      4 C4         -0.1558    1.6747   -3.0766 C.ar      1 <0>        -0.1426
      5 C5         -1.3462    1.0186   -3.3282 C.ar      1 <0>        -0.1066
      6 C6         -2.4585    1.7344   -3.7299 C.ar      1 <0>        -0.1117
      7 C7          1.0574    0.8941   -2.6411 C.3       1 <0>         0.1353
      8 H1          1.7273    1.5463   -2.0807 H         1 <0>         0.1311
      9 C8          1.7852    0.3532   -3.8734 C.3       1 <0>        -0.0421
     10 N1          2.9679   -0.4078   -3.4490 N.4       1 <0>        -0.5055
     11 C9          3.6667   -0.9271   -4.6322 C.3       1 <0>        -0.0080
     12 C10         4.8984   -1.7197   -4.1901 C.3       1 <0>        -0.0942
     13 C11         5.6153   -2.2524   -5.4039 C.ar      1 <0>        -0.1276
     14 C12         5.2782   -3.4934   -5.9137 C.ar      1 <0>        -0.1032
     15 C13         5.9309   -3.9862   -7.0252 C.ar      1 <0>        -0.1133
     16 C14         6.9316   -3.2308   -7.6345 C.ar      1 <0>         0.0032
     17 C15         7.2670   -1.9808   -7.1163 C.ar      1 <0>        -0.1135
     18 C16         6.6039   -1.4960   -6.0074 C.ar      1 <0>        -0.1025
     19 C17         7.6369   -3.7549   -8.8288 C.ar      1 <0>        -0.0523
     20 C18         7.2935   -5.0060   -9.3474 C.ar      1 <0>        -0.1476
     21 C19         7.9369   -5.4967  -10.4460 C.ar      1 <0>        -0.0527
     22 C20         8.9472   -4.7485  -11.0619 C.ar      1 <0>        -0.1382
     23 C21         9.2975   -3.4899  -10.5457 C.ar      1 <0>         0.1531
     24 C22         8.6356   -2.9967   -9.4337 C.ar      1 <0>        -0.1952
     25 O1         10.2750   -2.7591  -11.1366 O.3       1 <0>        -0.2111
     26 C23        10.5799   -1.5488  -10.5995 C.ar      1 <0>         0.0928
     27 C24        11.5541   -1.4502   -9.6163 C.ar      1 <0>        -0.1298
     28 C25        11.8620   -0.2185   -9.0719 C.ar      1 <0>        -0.1083
     29 C26        11.2004    0.9155   -9.5058 C.ar      1 <0>        -0.1297
     30 C27        10.2289    0.8199  -10.4851 C.ar      1 <0>        -0.1095
     31 C28         9.9215   -0.4084  -11.0372 C.ar      1 <0>        -0.1305
     32 C29         9.6399   -5.2787  -12.2453 C.2       1 <0>         0.5165
     33 O2          9.3337   -6.3754  -12.6933 O.co2     1 <0>        -0.6868
     34 O3         10.5227   -4.6232  -12.7822 O.co2     1 <0>        -0.6615
     35 O4          0.6500   -0.1961   -1.8119 O.3       1 <0>        -0.5488
     36 H2         -3.2515    3.6665   -4.1861 H         1 <0>         0.1312
     37 H3         -1.1302    4.8349   -3.7409 H         1 <0>         0.1317
     38 H4          0.8518    3.5595   -3.0282 H         1 <0>         0.1275
     39 H5         -1.4067   -0.0535   -3.2127 H         1 <0>         0.1225
     40 H6         -3.3884    1.2217   -3.9269 H         1 <0>         0.1313
     41 H7          1.1154   -0.2990   -4.4339 H         1 <0>         0.1364
     42 H8          2.0960    1.1847   -4.5060 H         1 <0>         0.1442
     43 H9          3.5879    0.1960   -2.9302 H         1 <0>         0.4283
     44 H10         2.9968   -1.5793   -5.1926 H         1 <0>         0.1332
     45 H11         3.9774   -0.0955   -5.2647 H         1 <0>         0.1336
     46 H12         5.5682   -1.0674   -3.6296 H         1 <0>         0.0931
     47 H13         4.5877   -2.5512   -3.5575 H         1 <0>         0.0934
     48 H14         4.5030   -4.0780   -5.4406 H         1 <0>         0.1226
     49 H15         5.6672   -4.9554   -7.4221 H         1 <0>         0.1336
     50 H16         8.0415   -1.3912   -7.5842 H         1 <0>         0.1294
     51 H17         6.8600   -0.5260   -5.6076 H         1 <0>         0.1219
     52 H18         6.5151   -5.5877   -8.8762 H         1 <0>         0.1203
     53 H19         7.6663   -6.4648  -10.8412 H         1 <0>         0.1401
     54 H20         8.8967   -2.0279   -9.0340 H         1 <0>         0.1250
     55 H21        12.0709   -2.3356   -9.2768 H         1 <0>         0.1308
     56 H22        12.6199   -0.1413   -8.3064 H         1 <0>         0.1267
     57 H23        11.4427    1.8775   -9.0789 H         1 <0>         0.1233
     58 H24         9.7131    1.7071  -10.8217 H         1 <0>         0.1259
     59 H25         9.1663   -0.4818  -11.8057 H         1 <0>         0.1302
     60 H26         0.0511   -0.8185   -2.2466 H         1 <0>         0.3882
     61 H27         2.6802   -1.1775   -2.8634 H         1 <0>         0.4309
@<TRIPOS>BOND
     1    1    6 ar
     2    1    2 ar
     3    1   36 1
     4    2    3 ar
     5    2   37 1
     6    3    4 ar
     7    3   38 1
     8    4    5 ar
     9    4    7 1
    10    5    6 ar
    11    5   39 1
    12    6   40 1
    13    7    8 1
    14    7    9 1
    15    7   35 1
    16    9   10 1
    17    9   41 1
    18    9   42 1
    19   10   11 1
    20   10   43 1
    21   10   61 1
    22   11   12 1
    23   11   44 1
    24   11   45 1
    25   12   13 1
    26   12   46 1
    27   12   47 1
    28   13   18 ar
    29   13   14 ar
    30   14   15 ar
    31   14   48 1
    32   15   16 ar
    33   15   49 1
    34   16   17 ar
    35   16   19 1
    36   17   18 ar
    37   17   50 1
    38   18   51 1
    39   19   24 ar
    40   19   20 ar
    41   20   21 ar
    42   20   52 1
    43   21   22 ar
    44   21   53 1
    45   22   23 ar
    46   22   32 1
    47   23   24 ar
    48   23   25 1
    49   24   54 1
    50   25   26 1
    51   26   31 ar
    52   26   27 ar
    53   27   28 ar
    54   27   55 1
    55   28   29 ar
    56   28   56 1
    57   29   30 ar
    58   29   57 1
    59   30   31 ar
    60   30   58 1
    61   31   59 1
    62   32   33 2
    63   32   34 1
    64   35   60 1
@<TRIPOS>MOLECULE
CHEMBL466923
   68    72     0     0     0
SMALL
USER_CHARGES

@<TRIPOS>ATOM
      1 C1         -0.0304    1.3557   -0.3860 C.ar      1 <0>        -0.1468
      2 C2          1.1559    2.0646   -0.4984 C.ar      1 <0>        -0.0825
      3 C3          2.3474    1.4068   -0.7150 C.ar      1 <0>        -0.1382
      4 C4          2.3677    0.0196   -0.8235 C.ar      1 <0>         0.1337
      5 C5          1.1667   -0.6961   -0.7096 C.ar      1 <0>        -0.0924
      6 C6         -0.0305   -0.0186   -0.4901 C.ar      1 <0>        -0.0604
      7 C7          1.5124   -2.1204   -0.8665 C.ar      1 <0>        -0.1299
      8 C8          2.8994   -2.1743   -1.0651 C.ar      1 <0>         0.1818
      9 N1          3.3948   -0.8829   -1.0362 N.pl3     1 <0>        -0.6121
     10 H1          4.3282   -0.6444   -1.1491 H         1 <0>         0.4226
     11 C9          3.5155   -3.4092   -1.2460 C.ar      1 <0>        -0.1711
     12 C10         2.7659   -4.5663   -1.2298 C.ar      1 <0>        -0.0443
     13 C11         1.3955   -4.5163   -1.0343 C.ar      1 <0>        -0.2455
     14 C12         0.7626   -3.2991   -0.8518 C.ar      1 <0>         0.1790
     15 O1         -0.5814   -3.2506   -0.6598 O.3       1 <0>        -0.2956
     16 C13        -1.2817   -4.4962   -0.6571 C.3       1 <0>         0.0280
     17 C14        -2.7731   -4.2423   -0.4287 C.3       1 <0>         0.0857
     18 H2         -2.9075   -3.6662    0.4868 H         1 <0>         0.1358
     19 C15        -3.5045   -5.5801   -0.3014 C.3       1 <0>        -0.0420
     20 N2         -4.9365   -5.3364   -0.0821 N.4       1 <0>        -0.5036
     21 C16        -5.6388   -6.6208    0.0401 C.3       1 <0>        -0.0077
     22 C17        -7.1301   -6.3669    0.2685 C.3       1 <0>        -0.0965
     23 C18        -7.8506   -7.6846    0.3939 C.ar      1 <0>        -0.1302
     24 C19        -8.3589   -8.3030   -0.7337 C.ar      1 <0>        -0.0860
     25 C20        -9.0197   -9.5106   -0.6222 C.ar      1 <0>        -0.1188
     26 C21        -9.1730  -10.1041    0.6239 C.ar      1 <0>         0.1718
     27 C22        -8.6609   -9.4808    1.7543 C.ar      1 <0>        -0.1456
     28 C23        -7.9969   -8.2756    1.6355 C.ar      1 <0>        -0.0864
     29 N3         -9.8423  -11.3274    0.7403 N.am      1 <0>        -0.6818
     30 C24        -9.7561  -12.2395   -0.2482 C.2       1 <0>         0.5226
     31 O2         -9.0232  -12.0412   -1.1940 O.2       1 <0>        -0.4945
     32 C25       -10.5703  -13.5056   -0.1783 C.3       1 <0>        -0.0894
     33 C26       -10.2936  -14.3487   -1.3963 C.ar      1 <0>         0.1311
     34 C27        -9.8772  -15.6576   -1.2410 C.ar      1 <0>        -0.1641
     35 C28        -9.6253  -16.4246   -2.3679 C.ar      1 <0>        -0.0733
     36 C29        -9.8024  -15.8439   -3.6146 C.ar      1 <0>        -0.1692
     37 C30       -10.2212  -14.5293   -3.6918 C.ar      1 <0>         0.1045
     38 N4        -10.4566  -13.8310   -2.5980 N.ar      1 <0>        -0.4620
     39 O3         -3.3066   -3.5110   -1.5343 O.3       1 <0>        -0.5431
     40 H3         -0.9572    1.8821   -0.2118 H         1 <0>         0.1276
     41 H4          1.1460    3.1414   -0.4157 H         1 <0>         0.1320
     42 H5          3.2660    1.9683   -0.8010 H         1 <0>         0.1270
     43 H6         -0.9559   -0.5684   -0.4022 H         1 <0>         0.1254
     44 H7          4.5833   -3.4612   -1.3997 H         1 <0>         0.1305
     45 H8          3.2516   -5.5205   -1.3713 H         1 <0>         0.1352
     46 H9          0.8193   -5.4297   -1.0241 H         1 <0>         0.1279
     47 H10        -1.1407   -4.9943   -1.6164 H         1 <0>         0.0782
     48 H11        -0.8944   -5.1291    0.1413 H         1 <0>         0.0830
     49 H12        -3.3701   -6.1562   -1.2169 H         1 <0>         0.1399
     50 H13        -3.0976   -6.1380    0.5419 H         1 <0>         0.1469
     51 H14        -5.0609   -4.8031    0.7654 H         1 <0>         0.4306
     52 H15        -5.5043   -7.1969   -0.8754 H         1 <0>         0.1338
     53 H16        -5.2318   -7.1787    0.8835 H         1 <0>         0.1341
     54 H17        -7.2646   -5.7908    1.1841 H         1 <0>         0.0959
     55 H18        -7.5371   -5.8091   -0.5748 H         1 <0>         0.0960
     56 H19        -8.2394   -7.8409   -1.7025 H         1 <0>         0.1272
     57 H20        -9.4171   -9.9927   -1.5032 H         1 <0>         0.1420
     58 H21        -8.7788   -9.9397    2.7248 H         1 <0>         0.1322
     59 H22        -7.5949   -7.7923    2.5136 H         1 <0>         0.1281
     60 H23       -10.3684  -11.5189    1.5324 H         1 <0>         0.4156
     61 H24       -10.2994  -14.0628    0.7185 H         1 <0>         0.1152
     62 H25       -11.6304  -13.2544   -0.1435 H         1 <0>         0.1197
     63 H26        -9.7494  -16.0773   -0.2541 H         1 <0>         0.1356
     64 H27        -9.2985  -17.4500   -2.2770 H         1 <0>         0.1379
     65 H28        -9.6152  -16.4118   -4.5140 H         1 <0>         0.1377
     66 H29       -10.3615  -14.0697   -4.6590 H         1 <0>         0.1572
     67 H30        -3.2213   -3.9648   -2.3840 H         1 <0>         0.3903
     68 H31        -5.3132   -4.8200   -0.8628 H         1 <0>         0.4335
@<TRIPOS>BOND
     1    1    6 ar
     2    1    2 ar
     3    1   40 1
     4    2    3 ar
     5    2   41 1
     6    3    4 ar
     7    3   42 1
     8    4    9 1
     9    4    5 ar
    10    5    6 ar
    11    5    7 1
    12    6   43 1
    13    7   14 ar
    14    7    8 ar
    15    8    9 1
    16    8   11 ar
    17    9   10 1
    18   11   12 ar
    19   11   44 1
    20   12   13 ar
    21   12   45 1
    22   13   14 ar
    23   13   46 1
    24   14   15 1
    25   15   16 1
    26   16   17 1
    27   16   47 1
    28   16   48 1
    29   17   18 1
    30   17   19 1
    31   17   39 1
    32   19   20 1
    33   19   49 1
    34   19   50 1
    35   20   21 1
    36   20   51 1
    37   20   68 1
    38   21   22 1
    39   21   52 1
    40   21   53 1
    41   22   23 1
    42   22   54 1
    43   22   55 1
    44   23   28 ar
    45   23   24 ar
    46   24   25 ar
    47   24   56 1
    48   25   26 ar
    49   25   57 1
    50   26   27 ar
    51   26   29 1
    52   27   28 ar
    53   27   58 1
    54   28   59 1
    55   29   30 am
    56   29   60 1
    57   30   31 2
    58   30   32 1
    59   32   33 1
    60   32   61 1
    61   32   62 1
    62   33   38 ar
    63   33   34 ar
    64   34   35 ar
    65   34   63 1
    66   35   36 ar
    67   35   64 1
    68   36   37 ar
    69   36   65 1
    70   37   38 ar
    71   37   66 1
    72   39   67 1
@<TRIPOS>MOLECULE
CHEMBL466923__1
   69    73     0     0     0
SMALL
USER_CHARGES

@<TRIPOS>ATOM
      1 C1         -0.0304    1.3557   -0.3860 C.ar      1 <0>        -0.1462
      2 C2          1.1559    2.0646   -0.4984 C.ar      1 <0>        -0.0815
      3 C3          2.3474    1.4068   -0.7150 C.ar      1 <0>        -0.1370
      4 C4          2.3677    0.0196   -0.8235 C.ar      1 <0>         0.1341
      5 C5          1.1667   -0.6961   -0.7096 C.ar      1 <0>        -0.0936
      6 C6         -0.0305   -0.0186   -0.4901 C.ar      1 <0>        -0.0612
      7 C7          1.5124   -2.1204   -0.8665 C.ar      1 <0>        -0.1289
      8 C8          2.8994   -2.1743   -1.0651 C.ar      1 <0>         0.1825
      9 N1          3.3948   -0.8829   -1.0362 N.pl3     1 <0>        -0.6114
     10 H1          4.3282   -0.6444   -1.1491 H         1 <0>         0.4234
     11 C9          3.5155   -3.4092   -1.2460 C.ar      1 <0>        -0.1693
     12 C10         2.7659   -4.5663   -1.2298 C.ar      1 <0>        -0.0455
     13 C11         1.3955   -4.5163   -1.0343 C.ar      1 <0>        -0.2461
     14 C12         0.7626   -3.2991   -0.8518 C.ar      1 <0>         0.1773
     15 O1         -0.5814   -3.2506   -0.6598 O.3       1 <0>        -0.2953
     16 C13        -1.2817   -4.4962   -0.6571 C.3       1 <0>         0.0286
     17 C14        -2.7731   -4.2423   -0.4287 C.3       1 <0>         0.0848
     18 H2         -2.9075   -3.6662    0.4868 H         1 <0>         0.1367
     19 C15        -3.5045   -5.5801   -0.3014 C.3       1 <0>        -0.0415
     20 N2         -4.9365   -5.3364   -0.0821 N.4       1 <0>        -0.5042
     21 C16        -5.6388   -6.6208    0.0401 C.3       1 <0>        -0.0060
     22 C17        -7.1301   -6.3669    0.2685 C.3       1 <0>        -0.1035
     23 C18        -7.8506   -7.6846    0.3939 C.ar      1 <0>        -0.1115
     24 C19        -8.3589   -8.3030   -0.7337 C.ar      1 <0>        -0.0873
     25 C20        -9.0197   -9.5106   -0.6222 C.ar      1 <0>        -0.1148
     26 C21        -9.1730  -10.1041    0.6239 C.ar      1 <0>         0.1493
     27 C22        -8.6609   -9.4808    1.7543 C.ar      1 <0>        -0.1334
     28 C23        -7.9969   -8.2756    1.6355 C.ar      1 <0>        -0.0850
     29 N3         -9.8423  -11.3274    0.7403 N.am      1 <0>        -0.6626
     30 C24        -9.7561  -12.2395   -0.2482 C.2       1 <0>         0.5191
     31 O2         -9.0232  -12.0412   -1.1940 O.2       1 <0>        -0.5115
     32 C25       -10.5703  -13.5056   -0.1783 C.3       1 <0>        -0.1295
     33 C26       -10.2936  -14.3487   -1.3963 C.ar      1 <0>         0.1728
     34 C27       -10.9925  -14.1109   -2.5650 C.ar      1 <0>        -0.1068
     35 C28       -10.7304  -14.8922   -3.6797 C.ar      1 <0>         0.0137
     36 C29        -9.7707  -15.8879   -3.5770 C.ar      1 <0>        -0.1203
     37 C30        -9.1123  -16.0671   -2.3754 C.ar      1 <0>         0.1396
     38 N4         -9.3838  -15.3012   -1.3366 N.ar      1 <0>        -0.4388
     39 O3         -3.3066   -3.5110   -1.5343 O.3       1 <0>        -0.5420
     40 H3         -0.9572    1.8821   -0.2118 H         1 <0>         0.1278
     41 H4          1.1460    3.1414   -0.4157 H         1 <0>         0.1329
     42 H5          3.2660    1.9683   -0.8010 H         1 <0>         0.1280
     43 H6         -0.9559   -0.5684   -0.4022 H         1 <0>         0.1245
     44 H7          4.5833   -3.4612   -1.3997 H         1 <0>         0.1313
     45 H8          3.2516   -5.5205   -1.3713 H         1 <0>         0.1349
     46 H9          0.8193   -5.4297   -1.0241 H         1 <0>         0.1264
     47 H10        -1.1407   -4.9943   -1.6164 H         1 <0>         0.0774
     48 H11        -0.8944   -5.1291    0.1413 H         1 <0>         0.0823
     49 H12        -3.3701   -6.1562   -1.2169 H         1 <0>         0.1395
     50 H13        -3.0976   -6.1380    0.5419 H         1 <0>         0.1472
     51 H14        -5.0609   -4.8031    0.7654 H         1 <0>         0.4324
     52 H15        -5.5043   -7.1969   -0.8754 H         1 <0>         0.1328
     53 H16        -5.2318   -7.1787    0.8835 H         1 <0>         0.1341
     54 H17        -7.2646   -5.7908    1.1841 H         1 <0>         0.1005
     55 H18        -7.5371   -5.8091   -0.5748 H         1 <0>         0.0998
     56 H19        -8.2394   -7.8409   -1.7025 H         1 <0>         0.1319
     57 H20        -9.4171   -9.9927   -1.5032 H         1 <0>         0.1383
     58 H21        -8.7788   -9.9397    2.7248 H         1 <0>         0.1358
     59 H22        -7.5949   -7.7923    2.5136 H         1 <0>         0.1346
     60 H23       -10.3684  -11.5189    1.5324 H         1 <0>         0.4221
     61 H24       -10.2994  -14.0628    0.7185 H         1 <0>         0.1371
     62 H25       -11.6304  -13.2544   -0.1435 H         1 <0>         0.1583
     63 H26       -11.7337  -13.3267   -2.6089 H         1 <0>         0.1838
     64 H27       -11.2612  -14.7294   -4.6061 H         1 <0>         0.1820
     65 H28        -9.5411  -16.5157   -4.4252 H         1 <0>         0.1906
     66 H29        -8.3635  -16.8404   -2.2872 H         1 <0>         0.2143
     67 H30        -3.2213   -3.9648   -2.3840 H         1 <0>         0.3899
     68 H31        -5.3132   -4.8200   -0.8628 H         1 <0>         0.4344
     69 H32        -8.9045  -15.4450   -0.5056 H         1 <0>         0.4478
@<TRIPOS>BOND
     1    1    6 ar
     2    1    2 ar
     3    1   40 1
     4    2    3 ar
     5    2   41 1
     6    3    4 ar
     7    3   42 1
     8    4    9 1
     9    4    5 ar
    10    5    6 ar
    11    5    7 1
    12    6   43 1
    13    7   14 ar
    14    7    8 ar
    15    8    9 1
    16    8   11 ar
    17    9   10 1
    18   11   12 ar
    19   11   44 1
    20   12   13 ar
    21   12   45 1
    22   13   14 ar
    23   13   46 1
    24   14   15 1
    25   15   16 1
    26   16   17 1
    27   16   47 1
    28   16   48 1
    29   17   18 1
    30   17   19 1
    31   17   39 1
    32   19   20 1
    33   19   49 1
    34   19   50 1
    35   20   21 1
    36   20   51 1
    37   20   68 1
    38   21   22 1
    39   21   52 1
    40   21   53 1
    41   22   23 1
    42   22   54 1
    43   22   55 1
    44   23   28 ar
    45   23   24 ar
    46   24   25 ar
    47   24   56 1
    48   25   26 ar
    49   25   57 1
    50   26   27 ar
    51   26   29 1
    52   27   28 ar
    53   27   58 1
    54   28   59 1
    55   29   30 am
    56   29   60 1
    57   30   31 2
    58   30   32 1
    59   32   33 1
    60   32   61 1
    61   32   62 1
    62   33   38 ar
    63   33   34 ar
    64   34   35 ar
    65   34   63 1
    66   35   36 ar
    67   35   64 1
    68   36   37 ar
    69   36   65 1
    70   37   38 ar
    71   37   66 1
    72   38   69 1
    73   39   67 1
@<TRIPOS>MOLECULE
CHEMBL498304
   53    56     0     0     0
SMALL
USER_CHARGES

@<TRIPOS>ATOM
      1 C1         -0.0167    1.3777    0.0096 C.ar      1 <0>        -0.0986
      2 C2          1.1710    2.0855    0.0021 C.ar      1 <0>        -0.0989
      3 C3          2.3777    1.4116   -0.0130 C.ar      1 <0>        -0.1294
      4 C4          2.3977    0.0294   -0.0210 C.ar      1 <0>        -0.0988
      5 C5          1.2098   -0.6793   -0.0135 C.ar      1 <0>        -0.0296
      6 C6          0.0021   -0.0041    0.0020 C.ar      1 <0>        -0.0924
      7 Cl1         1.2341   -2.4151   -0.0242 Cl        1 <0>        -0.0471
      8 C7          3.6718    2.1839   -0.0212 C.3       1 <0>         0.1383
      9 H1          3.5107    3.1675    0.4199 H         1 <0>         0.1343
     10 C8          4.1605    2.3449   -1.4621 C.3       1 <0>        -0.0487
     11 N1          5.4219    3.0977   -1.4701 N.4       1 <0>        -0.5014
     12 C9          5.8911    3.2523   -2.8536 C.3       1 <0>         0.0252
     13 H2          5.1088    3.7125   -3.4572 H         1 <0>         0.1447
     14 C10         7.1466    4.1320   -2.8777 C.3       1 <0>        -0.1363
     15 C11         7.4686    4.4720   -4.3313 C.3       1 <0>        -0.0733
     16 C12         7.5085    3.2220   -5.1717 C.ar      1 <0>        -0.0910
     17 C13         8.1479    3.2943   -6.4044 C.ar      1 <0>        -0.1137
     18 C14         8.2172    2.1924   -7.2267 C.ar      1 <0>        -0.0949
     19 C15         7.6391    0.9903   -6.8191 C.ar      1 <0>        -0.0093
     20 C16         7.0022    0.9207   -5.5840 C.ar      1 <0>        -0.0805
     21 C17         6.9408    2.0353   -4.7611 C.ar      1 <0>        -0.0965
     22 C18         6.2489    1.8846   -3.4312 C.3       1 <0>        -0.0903
     23 C19         7.7022   -0.2034   -7.6950 C.ar      1 <0>         0.1209
     24 C20         8.4378   -0.1499   -8.8796 C.ar      1 <0>        -0.1680
     25 C21         8.4923   -1.2655   -9.6899 C.ar      1 <0>        -0.0455
     26 C22         7.8001   -2.4176   -9.2860 C.ar      1 <0>        -0.1637
     27 C23         7.0849   -2.3939   -8.0853 C.ar      1 <0>         0.1289
     28 N2          7.0624   -1.3115   -7.3393 N.ar      1 <0>        -0.4890
     29 C24         7.8265   -3.6349  -10.1163 C.2       1 <0>         0.5204
     30 O1          8.4548   -3.6460  -11.1657 O.co2     1 <0>        -0.6766
     31 O2          7.2201   -4.6342   -9.7560 O.co2     1 <0>        -0.6771
     32 O3          4.6537    1.4761    0.7385 O.3       1 <0>        -0.5476
     33 H3         -0.9592    1.9048    0.0259 H         1 <0>         0.1416
     34 H4          1.1559    3.1654    0.0076 H         1 <0>         0.1343
     35 H5          3.3407   -0.4970   -0.0336 H         1 <0>         0.1343
     36 H6         -0.9257   -0.5568    0.0079 H         1 <0>         0.1424
     37 H7          4.3215    1.3613   -1.9032 H         1 <0>         0.1400
     38 H8          3.4115    2.8848   -2.0416 H         1 <0>         0.1465
     39 H9          5.2728    4.0082   -1.0618 H         1 <0>         0.4284
     40 H10         6.9630    5.0492   -2.3181 H         1 <0>         0.0912
     41 H11         7.9823    3.5913   -2.4334 H         1 <0>         0.0935
     42 H12         6.7034    5.1431   -4.7214 H         1 <0>         0.0861
     43 H13         8.4383    4.9677   -4.3781 H         1 <0>         0.0955
     44 H14         8.5947    4.2253   -6.7205 H         1 <0>         0.1283
     45 H15         8.7162    2.2584   -8.1822 H         1 <0>         0.1341
     46 H16         6.5527   -0.0077   -5.2639 H         1 <0>         0.1377
     47 H17         6.9110    1.3643   -2.7392 H         1 <0>         0.0953
     48 H18         5.3379    1.3009   -3.5635 H         1 <0>         0.0967
     49 H19         8.9580    0.7543   -9.1592 H         1 <0>         0.1294
     50 H20         9.0537   -1.2522  -10.6125 H         1 <0>         0.1430
     51 H21         6.5487   -3.2750   -7.7651 H         1 <0>         0.1669
     52 H22         4.8478    0.5905    0.4023 H         1 <0>         0.3903
     53 H23         6.1152    2.5980   -0.9337 H         1 <0>         0.4301
@<TRIPOS>BOND
     1    1    6 ar
     2    1    2 ar
     3    1   33 1
     4    2    3 ar
     5    2   34 1
     6    3    4 ar
     7    3    8 1
     8    4    5 ar
     9    4   35 1
    10    5    6 ar
    11    5    7 1
    12    6   36 1
    13    8    9 1
    14    8   10 1
    15    8   32 1
    16   10   11 1
    17   10   37 1
    18   10   38 1
    19   11   12 1
    20   11   39 1
    21   11   53 1
    22   12   13 1
    23   12   22 1
    24   12   14 1
    25   14   15 1
    26   14   40 1
    27   14   41 1
    28   15   16 1
    29   15   42 1
    30   15   43 1
    31   16   21 ar
    32   16   17 ar
    33   17   18 ar
    34   17   44 1
    35   18   19 ar
    36   18   45 1
    37   19   20 ar
    38   19   23 1
    39   20   21 ar
    40   20   46 1
    41   21   22 1
    42   22   47 1
    43   22   48 1
    44   23   28 ar
    45   23   24 ar
    46   24   25 ar
    47   24   49 1
    48   25   26 ar
    49   25   50 1
    50   26   27 ar
    51   26   29 1
    52   27   28 ar
    53   27   51 1
    54   29   30 2
    55   29   31 1
    56   32   52 1
@<TRIPOS>MOLECULE
CHEMBL570834
   89    92     0     0     0
SMALL
USER_CHARGES

@<TRIPOS>ATOM
      1 C1          0.2046    1.3116    0.2089 C.3       1 <0>        -0.1800
      2 C2          0.0398   -0.2053    0.0964 C.3       1 <0>         0.0601
      3 C3          0.6507   -0.8774    1.3276 C.3       1 <0>        -0.1806
      4 C4         -1.4480   -0.5518    0.0117 C.3       1 <0>        -0.0888
      5 C5         -2.1495   -0.0610    1.2519 C.ar      1 <0>        -0.1156
      6 C6         -2.2516   -0.8842    2.3583 C.ar      1 <0>        -0.0873
      7 C7         -2.8939   -0.4374    3.4964 C.ar      1 <0>        -0.1186
      8 C8         -3.4370    0.8403    3.5291 C.ar      1 <0>         0.1628
      9 C9         -3.3323    1.6648    2.4165 C.ar      1 <0>        -0.1427
     10 C10        -2.6846    1.2137    1.2831 C.ar      1 <0>        -0.0866
     11 N1         -4.0887    1.2959    4.6804 N.am      1 <0>        -0.6778
     12 C11        -3.6700    0.8921    5.8962 C.2       1 <0>         0.5177
     13 O1         -2.6712    0.2115    5.9984 O.2       1 <0>        -0.5169
     14 C12        -4.4427    1.2860    7.1285 C.3       1 <0>        -0.1390
     15 C13        -3.7597    0.7026    8.3670 C.3       1 <0>        -0.1181
     16 C14        -4.5443    1.1026    9.6182 C.3       1 <0>         0.1185
     17 N2         -3.8903    0.5439   10.8041 N.am      1 <0>        -0.7275
     18 C15        -4.4085    0.7679   12.0279 C.2       1 <0>         0.5139
     19 O2         -5.4163    1.4320   12.1474 O.2       1 <0>        -0.5232
     20 C16        -3.7358    0.1932   13.2478 C.3       1 <0>         0.0344
     21 N3         -4.4891    0.5772   14.4491 N.3       1 <0>        -0.5233
     22 C17        -4.4227    2.0286   14.6708 C.3       1 <0>         0.0194
     23 C18        -5.2667    2.3939   15.8939 C.3       1 <0>         0.0001
     24 N4         -4.7585    1.6777   17.0712 N.4       1 <0>        -0.3891
     25 C19        -4.8541    0.2296   16.8445 C.3       1 <0>        -0.0016
     26 C20        -4.0067   -0.1537   15.6294 C.3       1 <0>         0.0259
     27 C21        -5.5577    2.0425   18.2486 C.3       1 <0>        -0.0461
     28 N5          0.7236   -0.6837   -1.1126 N.4       1 <0>        -0.4993
     29 C22         2.1521   -0.3510   -1.0313 C.3       1 <0>        -0.0493
     30 C23         2.8643   -0.8494   -2.2904 C.3       1 <0>         0.1462
     31 C24         4.3472   -0.6185   -2.1534 C.ar      1 <0>        -0.1375
     32 C25         4.9202    0.5270   -2.6760 C.ar      1 <0>        -0.0815
     33 C26         6.2796    0.7450   -2.5535 C.ar      1 <0>        -0.1243
     34 C27         7.0786   -0.1854   -1.9043 C.ar      1 <0>         0.1253
     35 C28         6.5066   -1.3366   -1.3784 C.ar      1 <0>         0.0771
     36 C29         5.1357   -1.5501   -1.4995 C.ar      1 <0>         0.1045
     37 O3          4.5862   -2.6794   -0.9778 O.3       1 <0>        -0.3073
     38 C30         5.4009   -3.8545   -0.9863 C.3       1 <0>         0.0501
     39 C31         6.7818   -3.5172   -0.4842 C.2       1 <0>         0.4882
     40 O4          7.4314   -4.3473    0.1162 O.2       1 <0>        -0.4899
     41 N6          7.2946   -2.2920   -0.7164 N.am      1 <0>        -0.6550
     42 O5          8.4160    0.0289   -1.7838 O.3       1 <0>        -0.4844
     43 O6          2.3744   -0.1370   -3.4282 O.3       1 <0>        -0.5441
     44 H1          1.2645    1.5585    0.2692 H         1 <0>         0.0809
     45 H2         -0.2307    1.7905   -0.6683 H         1 <0>         0.0835
     46 H3         -0.3028    1.6667    1.1059 H         1 <0>         0.1086
     47 H4          0.1434   -0.5224    2.2246 H         1 <0>         0.1088
     48 H5          0.5334   -1.9581    1.2474 H         1 <0>         0.0835
     49 H6          1.7107   -0.6305    1.3879 H         1 <0>         0.0814
     50 H7         -1.8832   -0.0730   -0.8655 H         1 <0>         0.0976
     51 H8         -1.5654   -1.6325   -0.0685 H         1 <0>         0.0972
     52 H9         -1.8290   -1.8777    2.3322 H         1 <0>         0.1286
     53 H10        -2.9739   -1.0810    4.3599 H         1 <0>         0.1386
     54 H11        -3.7540    2.6588    2.4386 H         1 <0>         0.1323
     55 H12        -2.5993    1.8559    0.4189 H         1 <0>         0.1302
     56 H13        -4.8418    1.9024    4.6036 H         1 <0>         0.4169
     57 H14        -4.4714    2.3728    7.2074 H         1 <0>         0.1045
     58 H15        -5.4597    0.8999    7.0586 H         1 <0>         0.1065
     59 H16        -3.7311   -0.3842    8.2881 H         1 <0>         0.0811
     60 H17        -2.7428    1.0887    8.4370 H         1 <0>         0.0800
     61 H18        -4.5729    2.1893    9.6971 H         1 <0>         0.0726
     62 H19        -5.5612    0.7165    9.5482 H         1 <0>         0.0744
     63 H20        -3.0843    0.0127   10.7085 H         1 <0>         0.4047
     64 H21        -3.7072   -0.8936   13.1689 H         1 <0>         0.1190
     65 H22        -2.7189    0.5793   13.3177 H         1 <0>         0.0774
     66 H23        -3.3874    2.3234   14.8422 H         1 <0>         0.0568
     67 H24        -4.8088    2.5485   13.7940 H         1 <0>         0.1384
     68 H25        -5.2073    3.4682   16.0685 H         1 <0>         0.1363
     69 H26        -6.3044    2.1115   15.7167 H         1 <0>         0.1397
     70 H27        -4.4889   -0.3007   17.7240 H         1 <0>         0.1382
     71 H28        -5.8940   -0.0418   16.6625 H         1 <0>         0.1390
     72 H29        -4.0893   -1.2260   15.4520 H         1 <0>         0.1253
     73 H30        -2.9645    0.1051   15.8165 H         1 <0>         0.0627
     74 H31        -6.5994    1.7702   18.0792 H         1 <0>         0.1238
     75 H32        -5.1807    1.5111   19.1225 H         1 <0>         0.1248
     76 H33        -5.4858    3.1169   18.4178 H         1 <0>         0.1248
     77 H34         0.6149   -1.6841   -1.1868 H         1 <0>         0.4281
     78 H35         2.2695    0.7297   -0.9511 H         1 <0>         0.1398
     79 H36         2.5873   -0.8298   -0.1541 H         1 <0>         0.1477
     80 H37         2.6728   -1.9147   -2.4186 H         1 <0>         0.1362
     81 H38         4.3027    1.2541   -3.1822 H         1 <0>         0.1429
     82 H39         6.7209    1.6410   -2.9643 H         1 <0>         0.1502
     83 H40         4.9544   -4.6102   -0.3400 H         1 <0>         0.1544
     84 H41         5.4690   -4.2415   -2.0030 H         1 <0>         0.1091
     85 H42         8.1913   -2.0709   -0.4198 H         1 <0>         0.4236
     86 H43         8.6668    0.5088   -0.9827 H         1 <0>         0.4010
     87 H44         2.5112    0.8191   -3.3825 H         1 <0>         0.3882
     88 H45         0.3207   -0.2405   -1.9245 H         1 <0>         0.4304
     89 H46        -3.7944    1.9304   17.2282 H         1 <0>         0.4217
@<TRIPOS>BOND
     1    1    2 1
     2    1   44 1
     3    1   45 1
     4    1   46 1
     5    2    3 1
     6    2    4 1
     7    2   28 1
     8    3   47 1
     9    3   48 1
    10    3   49 1
    11    4    5 1
    12    4   50 1
    13    4   51 1
    14    5   10 ar
    15    5    6 ar
    16    6    7 ar
    17    6   52 1
    18    7    8 ar
    19    7   53 1
    20    8    9 ar
    21    8   11 1
    22    9   10 ar
    23    9   54 1
    24   10   55 1
    25   11   12 am
    26   11   56 1
    27   12   13 2
    28   12   14 1
    29   14   15 1
    30   14   57 1
    31   14   58 1
    32   15   16 1
    33   15   59 1
    34   15   60 1
    35   16   17 1
    36   16   61 1
    37   16   62 1
    38   17   18 am
    39   17   63 1
    40   18   19 2
    41   18   20 1
    42   20   21 1
    43   20   64 1
    44   20   65 1
    45   21   26 1
    46   21   22 1
    47   22   23 1
    48   22   66 1
    49   22   67 1
    50   23   24 1
    51   23   68 1
    52   23   69 1
    53   24   25 1
    54   24   27 1
    55   24   89 1
    56   25   26 1
    57   25   70 1
    58   25   71 1
    59   26   72 1
    60   26   73 1
    61   27   74 1
    62   27   75 1
    63   27   76 1
    64   28   29 1
    65   28   77 1
    66   28   88 1
    67   29   30 1
    68   29   78 1
    69   29   79 1
    70   30   31 1
    71   30   43 1
    72   30   80 1
    73   31   36 ar
    74   31   32 ar
    75   32   33 ar
    76   32   81 1
    77   33   34 ar
    78   33   82 1
    79   34   35 ar
    80   34   42 1
    81   35   41 1
    82   35   36 ar
    83   36   37 1
    84   37   38 1
    85   38   39 1
    86   38   83 1
    87   38   84 1
    88   39   40 2
    89   39   41 am
    90   41   85 1
    91   42   86 1
    92   43   87 1
@<TRIPOS>MOLECULE
CHEMBL570834__1
   89    92     0     0     0
SMALL
USER_CHARGES

@<TRIPOS>ATOM
      1 C1          0.2046    1.3116    0.2089 C.3       1 <0>        -0.1807
      2 C2          0.0398   -0.2053    0.0964 C.3       1 <0>         0.0598
      3 C3          0.6507   -0.8774    1.3276 C.3       1 <0>        -0.1807
      4 C4         -1.4480   -0.5518    0.0117 C.3       1 <0>        -0.0887
      5 C5         -2.1495   -0.0610    1.2519 C.ar      1 <0>        -0.1158
      6 C6         -2.2516   -0.8842    2.3583 C.ar      1 <0>        -0.0874
      7 C7         -2.8939   -0.4374    3.4964 C.ar      1 <0>        -0.1186
      8 C8         -3.4370    0.8403    3.5291 C.ar      1 <0>         0.1630
      9 C9         -3.3323    1.6648    2.4165 C.ar      1 <0>        -0.1426
     10 C10        -2.6846    1.2137    1.2831 C.ar      1 <0>        -0.0865
     11 N1         -4.0887    1.2959    4.6804 N.am      1 <0>        -0.6778
     12 C11        -3.6700    0.8921    5.8962 C.2       1 <0>         0.5179
     13 O1         -2.6712    0.2115    5.9984 O.2       1 <0>        -0.5171
     14 C12        -4.4427    1.2860    7.1285 C.3       1 <0>        -0.1392
     15 C13        -3.7597    0.7026    8.3670 C.3       1 <0>        -0.1180
     16 C14        -4.5443    1.1026    9.6182 C.3       1 <0>         0.1184
     17 N2         -3.8903    0.5439   10.8041 N.am      1 <0>        -0.7275
     18 C15        -4.4085    0.7679   12.0279 C.2       1 <0>         0.5138
     19 O2         -5.4163    1.4320   12.1474 O.2       1 <0>        -0.5231
     20 C16        -3.7358    0.1932   13.2478 C.3       1 <0>         0.0345
     21 N3         -4.4891    0.5772   14.4491 N.3       1 <0>        -0.5234
     22 C17        -4.4227    2.0286   14.6708 C.3       1 <0>         0.0194
     23 C18        -5.2667    2.3939   15.8939 C.3       1 <0>         0.0000
     24 N4         -4.7585    1.6777   17.0712 N.4       1 <0>        -0.3891
     25 C19        -4.8541    0.2296   16.8445 C.3       1 <0>        -0.0016
     26 C20        -4.0067   -0.1537   15.6294 C.3       1 <0>         0.0259
     27 C21        -5.5577    2.0425   18.2486 C.3       1 <0>        -0.0461
     28 N5          0.7236   -0.6837   -1.1126 N.4       1 <0>        -0.4988
     29 C22         2.1521   -0.3510   -1.0313 C.3       1 <0>        -0.0494
     30 C23         2.8643   -0.8494   -2.2904 C.3       1 <0>         0.1455
     31 C24         4.3297   -0.5080   -2.2070 C.ar      1 <0>        -0.1390
     32 C25         5.2321   -1.4432   -1.7329 C.ar      1 <0>        -0.0813
     33 C26         6.5776   -1.1366   -1.6542 C.ar      1 <0>        -0.1248
     34 C27         7.0317    0.1130   -2.0512 C.ar      1 <0>         0.1260
     35 C28         6.1285    1.0544   -2.5278 C.ar      1 <0>         0.0765
     36 C29         4.7743    0.7398   -2.6102 C.ar      1 <0>         0.1066
     37 O3          3.8996    1.6684   -3.0815 O.3       1 <0>        -0.3039
     38 C30         4.2033    3.0377   -2.8035 C.3       1 <0>         0.0502
     39 C31         5.6555    3.3063   -3.1068 C.2       1 <0>         0.4873
     40 O4          6.0048    4.4021   -3.4923 O.2       1 <0>        -0.4889
     41 N6          6.5645    2.3252   -2.9362 N.am      1 <0>        -0.6544
     42 O5          8.3553    0.4147   -1.9737 O.3       1 <0>        -0.4866
     43 O6          2.7104   -2.2661   -2.3955 O.3       1 <0>        -0.5442
     44 H1          1.2645    1.5585    0.2692 H         1 <0>         0.0805
     45 H2         -0.2307    1.7905   -0.6683 H         1 <0>         0.0842
     46 H3         -0.3028    1.6667    1.1059 H         1 <0>         0.1089
     47 H4          0.1434   -0.5224    2.2246 H         1 <0>         0.1095
     48 H5          0.5334   -1.9581    1.2474 H         1 <0>         0.0833
     49 H6          1.7107   -0.6305    1.3879 H         1 <0>         0.0809
     50 H7         -1.8832   -0.0730   -0.8655 H         1 <0>         0.0977
     51 H8         -1.5654   -1.6325   -0.0685 H         1 <0>         0.0974
     52 H9         -1.8290   -1.8777    2.3322 H         1 <0>         0.1286
     53 H10        -2.9739   -1.0810    4.3599 H         1 <0>         0.1387
     54 H11        -3.7540    2.6588    2.4386 H         1 <0>         0.1324
     55 H12        -2.5993    1.8559    0.4189 H         1 <0>         0.1302
     56 H13        -4.8418    1.9024    4.6036 H         1 <0>         0.4169
     57 H14        -4.4714    2.3728    7.2074 H         1 <0>         0.1045
     58 H15        -5.4597    0.8999    7.0586 H         1 <0>         0.1066
     59 H16        -3.7311   -0.3842    8.2881 H         1 <0>         0.0811
     60 H17        -2.7428    1.0887    8.4370 H         1 <0>         0.0800
     61 H18        -4.5729    2.1893    9.6971 H         1 <0>         0.0726
     62 H19        -5.5612    0.7165    9.5482 H         1 <0>         0.0744
     63 H20        -3.0843    0.0127   10.7085 H         1 <0>         0.4047
     64 H21        -3.7072   -0.8936   13.1689 H         1 <0>         0.1190
     65 H22        -2.7189    0.5793   13.3177 H         1 <0>         0.0774
     66 H23        -3.3874    2.3234   14.8422 H         1 <0>         0.0568
     67 H24        -4.8088    2.5485   13.7940 H         1 <0>         0.1384
     68 H25        -5.2073    3.4682   16.0685 H         1 <0>         0.1363
     69 H26        -6.3044    2.1115   15.7167 H         1 <0>         0.1397
     70 H27        -4.4889   -0.3007   17.7240 H         1 <0>         0.1382
     71 H28        -5.8940   -0.0418   16.6625 H         1 <0>         0.1390
     72 H29        -4.0893   -1.2260   15.4520 H         1 <0>         0.1253
     73 H30        -2.9645    0.1051   15.8165 H         1 <0>         0.0627
     74 H31        -6.5994    1.7702   18.0792 H         1 <0>         0.1238
     75 H32        -5.1807    1.5111   19.1225 H         1 <0>         0.1248
     76 H33        -5.4858    3.1169   18.4178 H         1 <0>         0.1248
     77 H34         0.6149   -1.6841   -1.1868 H         1 <0>         0.4305
     78 H35         2.2695    0.7297   -0.9511 H         1 <0>         0.1450
     79 H36         2.5873   -0.8298   -0.1541 H         1 <0>         0.1402
     80 H37         2.4290   -0.3705   -3.1676 H         1 <0>         0.1390
     81 H38         4.8837   -2.4172   -1.4225 H         1 <0>         0.1426
     82 H39         7.2768   -1.8710   -1.2825 H         1 <0>         0.1499
     83 H40         3.5783    3.6810   -3.4229 H         1 <0>         0.1545
     84 H41         4.0078    3.2465   -1.7517 H         1 <0>         0.1036
     85 H42         7.5050    2.4927   -3.1047 H         1 <0>         0.4244
     86 H43         8.8554    0.1984   -2.7726 H         1 <0>         0.4035
     87 H44         3.0758   -2.7580   -1.6474 H         1 <0>         0.3875
     88 H45         0.3207   -0.2405   -1.9245 H         1 <0>         0.4286
     89 H46        -3.7944    1.9304   17.2282 H         1 <0>         0.4217
@<TRIPOS>BOND
     1    1    2 1
     2    1   44 1
     3    1   45 1
     4    1   46 1
     5    2    3 1
     6    2    4 1
     7    2   28 1
     8    3   47 1
     9    3   48 1
    10    3   49 1
    11    4    5 1
    12    4   50 1
    13    4   51 1
    14    5   10 ar
    15    5    6 ar
    16    6    7 ar
    17    6   52 1
    18    7    8 ar
    19    7   53 1
    20    8    9 ar
    21    8   11 1
    22    9   10 ar
    23    9   54 1
    24   10   55 1
    25   11   12 am
    26   11   56 1
    27   12   13 2
    28   12   14 1
    29   14   15 1
    30   14   57 1
    31   14   58 1
    32   15   16 1
    33   15   59 1
    34   15   60 1
    35   16   17 1
    36   16   61 1
    37   16   62 1
    38   17   18 am
    39   17   63 1
    40   18   19 2
    41   18   20 1
    42   20   21 1
    43   20   64 1
    44   20   65 1
    45   21   26 1
    46   21   22 1
    47   22   23 1
    48   22   66 1
    49   22   67 1
    50   23   24 1
    51   23   68 1
    52   23   69 1
    53   24   25 1
    54   24   27 1
    55   24   89 1
    56   25   26 1
    57   25   70 1
    58   25   71 1
    59   26   72 1
    60   26   73 1
    61   27   74 1
    62   27   75 1
    63   27   76 1
    64   28   29 1
    65   28   77 1
    66   28   88 1
    67   29   30 1
    68   29   78 1
    69   29   79 1
    70   30   31 1
    71   30   43 1
    72   30   80 1
    73   31   36 ar
    74   31   32 ar
    75   32   33 ar
    76   32   81 1
    77   33   34 ar
    78   33   82 1
    79   34   35 ar
    80   34   42 1
    81   35   41 1
    82   35   36 ar
    83   36   37 1
    84   37   38 1
    85   38   39 1
    86   38   83 1
    87   38   84 1
    88   39   40 2
    89   39   41 am
    90   41   85 1
    91   42   86 1
    92   43   87 1
@<TRIPOS>MOLECULE
CHEMBL323113
   82    84     0     0     0
SMALL
USER_CHARGES

@<TRIPOS>ATOM
      1 C1         -8.6886    3.1052    4.3642 C.3       1 <0>        -0.1550
      2 C2         -9.2494    1.6823    4.4064 C.3       1 <0>        -0.1264
      3 C3         -8.3412    0.7520    3.5997 C.3       1 <0>        -0.1211
      4 C4         -8.9021   -0.6709    3.6420 C.3       1 <0>        -0.1219
      5 C5         -7.9939   -1.6011    2.8353 C.3       1 <0>        -0.1191
      6 C6         -8.5547   -3.0240    2.8775 C.3       1 <0>        -0.1173
      7 C7         -7.6466   -3.9543    2.0709 C.3       1 <0>        -0.1318
      8 C8         -8.2074   -5.3772    2.1131 C.3       1 <0>         0.1343
      9 N1         -7.3378   -6.2680    1.3407 N.am      1 <0>        -0.7372
     10 C9         -7.6366   -7.5781    1.2372 C.2       1 <0>         0.7026
     11 O1         -8.6278   -8.0208    1.7848 O.2       1 <0>        -0.5655
     12 N2         -6.8366   -8.3976    0.5266 N.am      1 <0>        -0.6903
     13 C10        -7.0913   -9.7734    0.4994 C.ar      1 <0>         0.2292
     14 C11        -6.0363  -10.6757    0.4647 C.ar      1 <0>        -0.1714
     15 C12        -6.2909  -12.0329    0.4384 C.ar      1 <0>         0.0028
     16 C13        -7.5947  -12.4936    0.4466 C.ar      1 <0>        -0.6963
     17 C14        -8.6474  -11.5976    0.4806 C.ar      1 <0>         0.0055
     18 C15        -8.3994  -10.2393    0.5128 C.ar      1 <0>        -0.1396
     19 S1         -7.9153  -14.2258    0.4130 S.o2      1 <0>         2.6897
     20 O2         -9.1690  -14.3943   -0.2345 O.2       1 <0>        -0.9399
     21 O3         -6.7270  -14.8498   -0.0536 O.2       1 <0>        -0.9468
     22 N3         -8.1229  -14.7159    1.9811 N.pl3     1 <0>        -1.0599
     23 C16        -7.0696  -14.6072    2.8920 C.ar      1 <0>         0.1680
     24 C17        -5.7902  -15.0072    2.5276 C.ar      1 <0>        -0.1512
     25 C18        -4.7509  -14.8980    3.4306 C.ar      1 <0>        -0.0830
     26 C19        -4.9829  -14.3915    4.6962 C.ar      1 <0>        -0.1214
     27 C20        -6.2553  -13.9924    5.0622 C.ar      1 <0>        -0.0879
     28 C21        -7.2980  -14.0936    4.1623 C.ar      1 <0>        -0.1256
     29 C22        -3.8465  -14.2747    5.6792 C.3       1 <0>        -0.0990
     30 C23        -3.1824  -12.9044    5.5305 C.3       1 <0>        -0.0086
     31 N4         -2.0747  -12.7905    6.4887 N.4       1 <0>        -0.5056
     32 C24        -1.4371  -11.4748    6.3460 C.3       1 <0>        -0.0426
     33 C25        -0.2834  -11.3563    7.3439 C.3       1 <0>         0.1414
     34 H1          0.4495  -12.1385    7.1465 H         1 <0>         0.1343
     35 C26         0.3706  -10.0065    7.1975 C.ar      1 <0>        -0.2001
     36 C27         1.4870   -9.8512    6.3896 C.ar      1 <0>        -0.0548
     37 C28         2.0556   -8.5913    6.2849 C.ar      1 <0>        -0.1641
     38 C29         1.4948   -7.5391    6.9843 C.ar      1 <0>         0.1222
     39 N5          0.4329   -7.7238    7.7438 N.ar      1 <0>        -0.4748
     40 C30        -0.1378   -8.9069    7.8621 C.ar      1 <0>         0.1171
     41 O4         -0.7871  -11.4998    8.6735 O.3       1 <0>        -0.5457
     42 H2         -9.3355    3.7680    4.9388 H         1 <0>         0.0548
     43 H3         -7.6866    3.1137    4.7932 H         1 <0>         0.0531
     44 H4         -8.6440    3.4476    3.3303 H         1 <0>         0.0538
     45 H5         -9.2939    1.3399    5.4403 H         1 <0>         0.0603
     46 H6        -10.2513    1.6738    3.9773 H         1 <0>         0.0611
     47 H7         -8.2967    1.0945    2.5659 H         1 <0>         0.0613
     48 H8         -7.3393    0.7605    4.0288 H         1 <0>         0.0603
     49 H9         -8.9466   -1.0133    4.6758 H         1 <0>         0.0615
     50 H10        -9.9040   -0.6794    3.2129 H         1 <0>         0.0627
     51 H11        -7.9494   -1.2587    1.8014 H         1 <0>         0.0629
     52 H12        -6.9919   -1.5926    3.2644 H         1 <0>         0.0613
     53 H13        -8.5993   -3.3665    3.9114 H         1 <0>         0.0659
     54 H14        -9.5567   -3.0325    2.4485 H         1 <0>         0.0678
     55 H15        -7.6020   -3.6119    1.0370 H         1 <0>         0.0714
     56 H16        -6.6446   -3.9458    2.4999 H         1 <0>         0.0689
     57 H17        -8.2520   -5.7196    3.1470 H         1 <0>         0.0697
     58 H18        -9.2094   -5.3857    1.6841 H         1 <0>         0.0721
     59 H19        -6.5471   -5.9148    0.9038 H         1 <0>         0.3998
     60 H20        -6.0843   -8.0338    0.0340 H         1 <0>         0.4122
     61 H21        -5.0178  -10.3166    0.4579 H         1 <0>         0.1348
     62 H22        -5.4708  -12.7352    0.4111 H         1 <0>         0.1437
     63 H23        -9.6646  -11.9605    0.4866 H         1 <0>         0.1444
     64 H24        -9.2219   -9.5401    0.5443 H         1 <0>         0.1536
     65 H25        -8.9759  -15.0784    2.2671 H         1 <0>         0.4323
     66 H26        -5.6084  -15.4035    1.5395 H         1 <0>         0.1640
     67 H27        -3.7559  -15.2088    3.1479 H         1 <0>         0.1325
     68 H28        -6.4330  -13.5973    6.0515 H         1 <0>         0.1296
     69 H29        -8.2906  -13.7775    4.4472 H         1 <0>         0.1358
     70 H30        -4.2306  -14.3842    6.6933 H         1 <0>         0.0972
     71 H31        -3.1136  -15.0570    5.4818 H         1 <0>         0.0980
     72 H32        -2.7983  -12.7949    4.5164 H         1 <0>         0.1343
     73 H33        -3.9154  -12.1221    5.7279 H         1 <0>         0.1332
     74 H34        -2.4303  -12.8919    7.4275 H         1 <0>         0.4328
     75 H35        -1.0530  -11.3653    5.3318 H         1 <0>         0.1445
     76 H36        -2.1701  -10.6926    6.5433 H         1 <0>         0.1371
     77 H37         1.9038  -10.6920    5.8550 H         1 <0>         0.1413
     78 H38         2.9258   -8.4338    5.6651 H         1 <0>         0.1472
     79 H39         1.9318   -6.5544    6.9082 H         1 <0>         0.1670
     80 H40        -1.0098   -9.0185    8.4894 H         1 <0>         0.1528
     81 H41        -1.4457  -10.8355    8.9185 H         1 <0>         0.3899
     82 H42        -1.3963  -13.5147    6.3060 H         1 <0>         0.4301
@<TRIPOS>BOND
     1    1    2 1
     2    1   42 1
     3    1   43 1
     4    1   44 1
     5    2    3 1
     6    2   45 1
     7    2   46 1
     8    3    4 1
     9    3   47 1
    10    3   48 1
    11    4    5 1
    12    4   49 1
    13    4   50 1
    14    5    6 1
    15    5   51 1
    16    5   52 1
    17    6    7 1
    18    6   53 1
    19    6   54 1
    20    7    8 1
    21    7   55 1
    22    7   56 1
    23    8    9 1
    24    8   57 1
    25    8   58 1
    26    9   10 am
    27    9   59 1
    28   10   11 2
    29   10   12 am
    30   12   13 1
    31   12   60 1
    32   13   18 ar
    33   13   14 ar
    34   14   15 ar
    35   14   61 1
    36   15   16 ar
    37   15   62 1
    38   16   17 ar
    39   16   19 1
    40   17   18 ar
    41   17   63 1
    42   18   64 1
    43   19   20 2
    44   19   21 2
    45   19   22 1
    46   22   23 1
    47   22   65 1
    48   23   28 ar
    49   23   24 ar
    50   24   25 ar
    51   24   66 1
    52   25   26 ar
    53   25   67 1
    54   26   27 ar
    55   26   29 1
    56   27   28 ar
    57   27   68 1
    58   28   69 1
    59   29   30 1
    60   29   70 1
    61   29   71 1
    62   30   31 1
    63   30   72 1
    64   30   73 1
    65   31   32 1
    66   31   74 1
    67   31   82 1
    68   32   33 1
    69   32   75 1
    70   32   76 1
    71   33   34 1
    72   33   35 1
    73   33   41 1
    74   35   40 ar
    75   35   36 ar
    76   36   37 ar
    77   36   77 1
    78   37   38 ar
    79   37   78 1
    80   38   39 ar
    81   38   79 1
    82   39   40 ar
    83   40   80 1
    84   41   81 1
@<TRIPOS>MOLECULE
CHEMBL84190
   86    89     0     0     0
SMALL
USER_CHARGES

@<TRIPOS>ATOM
      1 C1         -4.5689  -12.9997    9.3121 C.3       1 <0>        -0.1553
      2 C2         -5.0195  -11.6228    8.8201 C.3       1 <0>        -0.1255
      3 C3         -5.1080  -11.6309    7.2926 C.3       1 <0>        -0.1221
      4 C4         -5.5586  -10.2540    6.8006 C.3       1 <0>        -0.1201
      5 C5         -5.6471  -10.2621    5.2732 C.3       1 <0>        -0.1199
      6 C6         -6.0977   -8.8853    4.7811 C.3       1 <0>        -0.1157
      7 C7         -6.1862   -8.8933    3.2537 C.3       1 <0>        -0.1394
      8 C8         -6.6368   -7.5165    2.7617 C.3       1 <0>         0.1495
      9 N1         -6.7215   -7.5242    1.2992 N.am      1 <0>        -0.6240
     10 C9         -5.6249   -7.1842    0.3803 C.3       1 <0>         0.0900
     11 C10        -6.2489   -7.3544   -1.0184 C.3       1 <0>         0.0816
     12 N2         -7.6309   -7.7723   -0.7391 N.am      1 <0>        -0.5732
     13 C11        -7.8085   -7.8477    0.5864 C.2       1 <0>         0.7015
     14 O1         -8.8622   -8.1762    1.0965 O.2       1 <0>        -0.5634
     15 C12        -8.6041   -8.0525   -1.7049 C.ar      1 <0>         0.2553
     16 C13        -9.8427   -8.5494   -1.3209 C.ar      1 <0>        -0.1800
     17 C14       -10.8012   -8.8245   -2.2764 C.ar      1 <0>         0.0138
     18 C15       -10.5287   -8.6057   -3.6143 C.ar      1 <0>        -0.7080
     19 C16        -9.2963   -8.1110   -4.0000 C.ar      1 <0>         0.0174
     20 C17        -8.3354   -7.8290   -3.0489 C.ar      1 <0>        -0.1822
     21 S1        -11.7541   -8.9585   -4.8303 S.o2      1 <0>         2.6897
     22 O2        -11.0580   -9.3006   -6.0210 O.2       1 <0>        -0.9421
     23 O3        -12.6931   -9.8325   -4.2189 O.2       1 <0>        -0.9465
     24 N3        -12.5569   -7.5439   -5.1412 N.pl3     1 <0>        -1.0606
     25 C18       -13.2580   -6.8996   -4.1193 C.ar      1 <0>         0.1674
     26 C19       -14.0904   -7.6286   -3.2794 C.ar      1 <0>        -0.1497
     27 C20       -14.7818   -6.9885   -2.2697 C.ar      1 <0>        -0.0820
     28 C21       -14.6465   -5.6235   -2.0945 C.ar      1 <0>        -0.1200
     29 C22       -13.8187   -4.8948   -2.9288 C.ar      1 <0>        -0.0885
     30 C23       -13.1200   -5.5295   -3.9369 C.ar      1 <0>        -0.1261
     31 C24       -15.4034   -4.9283   -0.9922 C.3       1 <0>        -0.0988
     32 C25       -14.5550   -4.9180    0.2810 C.3       1 <0>        -0.0091
     33 N4        -15.2927   -4.2403    1.3555 N.4       1 <0>        -0.5051
     34 C26       -14.4782   -4.2304    2.5779 C.3       1 <0>        -0.0432
     35 C27       -15.2466   -3.5247    3.6970 C.3       1 <0>         0.1417
     36 H1        -16.1802   -4.0543    3.8868 H         1 <0>         0.1343
     37 C28       -14.4110   -3.5145    4.9511 C.ar      1 <0>        -0.1998
     38 C29       -14.5724   -4.5028    5.9104 C.ar      1 <0>        -0.0543
     39 C30       -13.7820   -4.4533    7.0482 C.ar      1 <0>        -0.1637
     40 C31       -12.8657   -3.4278    7.1877 C.ar      1 <0>         0.1221
     41 N5        -12.7396   -2.5045    6.2549 N.ar      1 <0>        -0.4751
     42 C32       -13.4702   -2.5235    5.1570 C.ar      1 <0>         0.1170
     43 O4        -15.5326   -2.1808    3.3044 O.3       1 <0>        -0.5459
     44 H2         -4.5059  -12.9939   10.4003 H         1 <0>         0.0547
     45 H3         -5.2895  -13.7530    8.9939 H         1 <0>         0.0535
     46 H4         -3.5902  -13.2330    8.8927 H         1 <0>         0.0541
     47 H5         -5.9982  -11.3895    9.2395 H         1 <0>         0.0598
     48 H6         -4.2989  -10.8695    9.1383 H         1 <0>         0.0607
     49 H7         -4.1293  -11.8642    6.8732 H         1 <0>         0.0615
     50 H8         -5.8286  -12.3842    6.9744 H         1 <0>         0.0607
     51 H9         -6.5373  -10.0207    7.2200 H         1 <0>         0.0604
     52 H10        -4.8380   -9.5007    7.1188 H         1 <0>         0.0618
     53 H11        -4.6684  -10.4954    4.8538 H         1 <0>         0.0623
     54 H12        -6.3677  -11.0154    4.9550 H         1 <0>         0.0614
     55 H13        -7.0764   -8.6519    5.2005 H         1 <0>         0.0635
     56 H14        -5.3771   -8.1319    5.0994 H         1 <0>         0.0651
     57 H15        -5.2075   -9.1266    2.8343 H         1 <0>         0.0665
     58 H16        -6.9068   -9.6467    2.9355 H         1 <0>         0.0677
     59 H17        -7.6155   -7.2832    3.1811 H         1 <0>         0.0853
     60 H18        -5.9162   -6.7632    3.0799 H         1 <0>         0.0861
     61 H19        -5.3034   -6.1539    0.5330 H         1 <0>         0.0930
     62 H20        -4.7885   -7.8706    0.5123 H         1 <0>         0.0930
     63 H21        -6.2373   -6.4087   -1.5602 H         1 <0>         0.0974
     64 H22        -5.7224   -8.1254   -1.5810 H         1 <0>         0.0985
     65 H23       -10.0560   -8.7208   -0.2761 H         1 <0>         0.1669
     66 H24       -11.7646   -9.2112   -1.9784 H         1 <0>         0.1432
     67 H25        -9.0865   -7.9412   -5.0457 H         1 <0>         0.1456
     68 H26        -7.3745   -7.4388   -3.3504 H         1 <0>         0.1382
     69 H27       -12.5402   -7.1627   -6.0330 H         1 <0>         0.4316
     70 H28       -14.1970   -8.6946   -3.4161 H         1 <0>         0.1626
     71 H29       -15.4291   -7.5546   -1.6163 H         1 <0>         0.1329
     72 H30       -13.7153   -3.8289   -2.7893 H         1 <0>         0.1294
     73 H31       -12.4702   -4.9605   -4.5853 H         1 <0>         0.1351
     74 H32       -15.6215   -3.9032   -1.2918 H         1 <0>         0.0971
     75 H33       -16.3369   -5.4579   -0.8025 H         1 <0>         0.0981
     76 H34       -14.3368   -5.9431    0.5805 H         1 <0>         0.1353
     77 H35       -13.6214   -4.3884    0.0913 H         1 <0>         0.1330
     78 H36       -15.4947   -3.2915    1.0782 H         1 <0>         0.4321
     79 H37       -14.2600   -5.2555    2.8775 H         1 <0>         0.1453
     80 H38       -13.5446   -3.7008    2.3882 H         1 <0>         0.1371
     81 H39       -15.2970   -5.2920    5.7745 H         1 <0>         0.1413
     82 H40       -13.8812   -5.2062    7.8161 H         1 <0>         0.1472
     83 H41       -12.2462   -3.3821    8.0711 H         1 <0>         0.1668
     84 H42       -13.3350   -1.7530    4.4125 H         1 <0>         0.1525
     85 H43       -14.7463   -1.6494    3.1190 H         1 <0>         0.3895
     86 H44       -16.1570   -4.7306    1.5311 H         1 <0>         0.4300
@<TRIPOS>BOND
     1    1    2 1
     2    1   44 1
     3    1   45 1
     4    1   46 1
     5    2    3 1
     6    2   47 1
     7    2   48 1
     8    3    4 1
     9    3   49 1
    10    3   50 1
    11    4    5 1
    12    4   51 1
    13    4   52 1
    14    5    6 1
    15    5   53 1
    16    5   54 1
    17    6    7 1
    18    6   55 1
    19    6   56 1
    20    7    8 1
    21    7   57 1
    22    7   58 1
    23    8    9 1
    24    8   59 1
    25    8   60 1
    26    9   13 am
    27    9   10 1
    28   10   11 1
    29   10   61 1
    30   10   62 1
    31   11   12 1
    32   11   63 1
    33   11   64 1
    34   12   13 am
    35   12   15 1
    36   13   14 2
    37   15   20 ar
    38   15   16 ar
    39   16   17 ar
    40   16   65 1
    41   17   18 ar
    42   17   66 1
    43   18   19 ar
    44   18   21 1
    45   19   20 ar
    46   19   67 1
    47   20   68 1
    48   21   22 2
    49   21   23 2
    50   21   24 1
    51   24   25 1
    52   24   69 1
    53   25   30 ar
    54   25   26 ar
    55   26   27 ar
    56   26   70 1
    57   27   28 ar
    58   27   71 1
    59   28   29 ar
    60   28   31 1
    61   29   30 ar
    62   29   72 1
    63   30   73 1
    64   31   32 1
    65   31   74 1
    66   31   75 1
    67   32   33 1
    68   32   76 1
    69   32   77 1
    70   33   34 1
    71   33   78 1
    72   33   86 1
    73   34   35 1
    74   34   79 1
    75   34   80 1
    76   35   36 1
    77   35   37 1
    78   35   43 1
    79   37   42 ar
    80   37   38 ar
    81   38   39 ar
    82   38   81 1
    83   39   40 ar
    84   39   82 1
    85   40   41 ar
    86   40   83 1
    87   41   42 ar
    88   42   84 1
    89   43   85 1
@<TRIPOS>MOLECULE
CHEMBL84190__1
   85    88     0     0     0
SMALL
USER_CHARGES

@<TRIPOS>ATOM
      1 C1         -5.8184  -12.1718   -8.4990 C.3       1 <0>        -0.1543
      2 C2         -5.1279  -10.8175   -8.6721 C.3       1 <0>        -0.1258
      3 C3         -3.7543  -10.8556   -7.9993 C.3       1 <0>        -0.1216
      4 C4         -3.0638   -9.5013   -8.1725 C.3       1 <0>        -0.1205
      5 C5         -1.6902   -9.5395   -7.4997 C.3       1 <0>        -0.1193
      6 C6         -0.9997   -8.1851   -7.6729 C.3       1 <0>        -0.1163
      7 C7          0.3739   -8.2233   -7.0001 C.3       1 <0>        -0.1386
      8 C8          1.0644   -6.8690   -7.1732 C.3       1 <0>         0.1503
      9 N1          2.3797   -6.9055   -6.5290 N.am      1 <0>        -0.6294
     10 C9          2.6525   -6.5509   -5.1282 C.3       1 <0>         0.0937
     11 C10         4.1717   -6.7641   -4.9825 C.3       1 <0>         0.0843
     12 N2          4.5936   -7.2162   -6.3167 N.am      1 <0>        -0.5717
     13 C11         3.5238   -7.2727   -7.1209 C.2       1 <0>         0.6989
     14 O1          3.5863   -7.6220   -8.2838 O.2       1 <0>        -0.5589
     15 C12         5.9037   -7.5415   -6.6860 C.ar      1 <0>         0.2280
     16 C13         6.1618   -8.0648   -7.9461 C.ar      1 <0>        -0.1788
     17 C14         7.4559   -8.3843   -8.3077 C.ar      1 <0>         0.0067
     18 C15         8.4940   -8.1838   -7.4164 C.ar      1 <0>        -0.6464
     19 C16         8.2402   -7.6630   -6.1608 C.ar      1 <0>         0.0062
     20 C17         6.9490   -7.3364   -5.7951 C.ar      1 <0>        -0.1844
     21 S1         10.1434   -8.5934   -7.8813 S.o2      1 <0>         2.6131
     22 O2         10.8602   -8.8222   -6.6759 O.2       1 <0>        -1.0277
     23 O3         10.0452   -9.5722   -8.9067 O.2       1 <0>        -1.0285
     24 N3         10.8054   -7.2442   -8.5768 N.2       1 <0>        -1.0827
     25 C18        12.1203   -7.2745   -9.0470 C.ar      1 <0>         0.2971
     26 C19        12.8722   -8.4374   -8.9372 C.ar      1 <0>        -0.2654
     27 C20        14.1718   -8.4641   -9.4035 C.ar      1 <0>        -0.0475
     28 C21        14.7250   -7.3348   -9.9789 C.ar      1 <0>        -0.2383
     29 C22        13.9793   -6.1756  -10.0898 C.ar      1 <0>        -0.0636
     30 C23        12.6772   -6.1437   -9.6307 C.ar      1 <0>        -0.1819
     31 C24        16.1438   -7.3675  -10.4858 C.3       1 <0>        -0.0704
     32 C25        16.1518   -7.8065  -11.9514 C.3       1 <0>        -0.0113
     33 N4         17.5349   -7.8383  -12.4455 N.4       1 <0>        -0.5054
     34 C26        17.5426   -8.2599  -13.8527 C.3       1 <0>        -0.0426
     35 C27        18.9830   -8.2930  -14.3673 C.3       1 <0>         0.1404
     36 H1         19.5648   -8.9981  -13.7736 H         1 <0>         0.1328
     37 C28        18.9909   -8.7255  -15.8108 C.ar      1 <0>        -0.1951
     38 C29        19.1886  -10.0571  -16.1438 C.ar      1 <0>        -0.0553
     39 C30        19.1881  -10.4090  -17.4847 C.ar      1 <0>        -0.1653
     40 C31        18.9919   -9.4279  -18.4384 C.ar      1 <0>         0.1185
     41 N5         18.8074   -8.1711  -18.0851 N.ar      1 <0>        -0.4762
     42 C32        18.7956   -7.8011  -16.8192 C.ar      1 <0>         0.1168
     43 O4         19.5582   -6.9895  -14.2574 O.3       1 <0>        -0.5470
     44 H2         -5.2103  -12.9510   -8.9584 H         1 <0>         0.0534
     45 H3         -5.9398  -12.3845   -7.4368 H         1 <0>         0.0531
     46 H4         -6.7969  -12.1446   -8.9783 H         1 <0>         0.0532
     47 H5         -5.0064  -10.6047   -9.7342 H         1 <0>         0.0605
     48 H6         -5.7360  -10.0382   -8.2127 H         1 <0>         0.0601
     49 H7         -3.8757  -11.0684   -6.9372 H         1 <0>         0.0603
     50 H8         -3.1462  -11.6349   -8.4588 H         1 <0>         0.0609
     51 H9         -2.9424   -9.2885   -9.2346 H         1 <0>         0.0616
     52 H10        -3.6719   -8.7221   -7.7130 H         1 <0>         0.0608
     53 H11        -1.8116   -9.7522   -6.4376 H         1 <0>         0.0606
     54 H12        -1.0821  -10.3187   -7.9592 H         1 <0>         0.0619
     55 H13        -0.8783   -7.9724   -8.7350 H         1 <0>         0.0654
     56 H14        -1.6078   -7.4059   -7.2134 H         1 <0>         0.0635
     57 H15         0.2525   -8.4361   -5.9380 H         1 <0>         0.0637
     58 H16         0.9820   -9.0025   -7.4595 H         1 <0>         0.0683
     59 H17         1.1858   -6.6562   -8.2354 H         1 <0>         0.0866
     60 H18         0.4563   -6.0897   -6.7138 H         1 <0>         0.0824
     61 H19         2.3925   -5.5093   -4.9396 H         1 <0>         0.0883
     62 H20         2.1071   -7.2106   -4.4534 H         1 <0>         0.0869
     63 H21         4.6661   -5.8284   -4.7216 H         1 <0>         0.0939
     64 H22         4.3807   -7.5297   -4.2353 H         1 <0>         0.0931
     65 H23         5.3515   -8.2219   -8.6426 H         1 <0>         0.1622
     66 H24         7.6573   -8.7916   -9.2875 H         1 <0>         0.1398
     67 H25         9.0530   -7.5075   -5.4669 H         1 <0>         0.1409
     68 H26         6.7519   -6.9259   -4.8158 H         1 <0>         0.1296
     69 H27        12.4410   -9.3195   -8.4873 H         1 <0>         0.1014
     70 H28        14.7569   -9.3679   -9.3185 H         1 <0>         0.1010
     71 H29        14.4143   -5.2953  -10.5396 H         1 <0>         0.1039
     72 H30        12.0938   -5.2393   -9.7216 H         1 <0>         0.1164
     73 H31        16.5825   -6.3732  -10.4019 H         1 <0>         0.0803
     74 H32        16.7256   -8.0725   -9.8921 H         1 <0>         0.0791
     75 H33        15.7131   -8.8008  -12.0352 H         1 <0>         0.1304
     76 H34        15.5700   -7.1015  -12.5451 H         1 <0>         0.1307
     77 H35        17.9410   -6.9179  -12.3679 H         1 <0>         0.4291
     78 H36        17.1038   -9.2542  -13.9365 H         1 <0>         0.1429
     79 H37        16.9608   -7.5548  -14.4464 H         1 <0>         0.1361
     80 H38        19.3397  -10.8022  -15.3767 H         1 <0>         0.1412
     81 H39        19.3393  -11.4367  -17.7804 H         1 <0>         0.1455
     82 H40        18.9901   -9.6939  -19.4852 H         1 <0>         0.1651
     83 H41        18.6362   -6.7629  -16.5680 H         1 <0>         0.1538
     84 H42        19.0907   -6.3095  -14.7615 H         1 <0>         0.3893
     85 H43        18.0734   -8.4910  -11.8959 H         1 <0>         0.4262
@<TRIPOS>BOND
     1    1    2 1
     2    1   44 1
     3    1   45 1
     4    1   46 1
     5    2    3 1
     6    2   47 1
     7    2   48 1
     8    3    4 1
     9    3   49 1
    10    3   50 1
    11    4    5 1
    12    4   51 1
    13    4   52 1
    14    5    6 1
    15    5   53 1
    16    5   54 1
    17    6    7 1
    18    6   55 1
    19    6   56 1
    20    7    8 1
    21    7   57 1
    22    7   58 1
    23    8    9 1
    24    8   59 1
    25    8   60 1
    26    9   13 am
    27    9   10 1
    28   10   11 1
    29   10   61 1
    30   10   62 1
    31   11   12 1
    32   11   63 1
    33   11   64 1
    34   12   13 am
    35   12   15 1
    36   13   14 2
    37   15   20 ar
    38   15   16 ar
    39   16   17 ar
    40   16   65 1
    41   17   18 ar
    42   17   66 1
    43   18   19 ar
    44   18   21 1
    45   19   20 ar
    46   19   67 1
    47   20   68 1
    48   21   22 2
    49   21   23 2
    50   21   24 1
    51   24   25 1
    52   25   30 ar
    53   25   26 ar
    54   26   27 ar
    55   26   69 1
    56   27   28 ar
    57   27   70 1
    58   28   29 ar
    59   28   31 1
    60   29   30 ar
    61   29   71 1
    62   30   72 1
    63   31   32 1
    64   31   73 1
    65   31   74 1
    66   32   33 1
    67   32   75 1
    68   32   76 1
    69   33   34 1
    70   33   77 1
    71   33   85 1
    72   34   35 1
    73   34   78 1
    74   34   79 1
    75   35   36 1
    76   35   37 1
    77   35   43 1
    78   37   42 ar
    79   37   38 ar
    80   38   39 ar
    81   38   80 1
    82   39   40 ar
    83   39   81 1
    84   40   41 ar
    85   40   82 1
    86   41   42 ar
    87   42   83 1
    88   43   84 1
@<TRIPOS>MOLECULE
CHEMBL95966
   49    50     0     0     0
SMALL
USER_CHARGES

@<TRIPOS>ATOM
      1 C1         -0.0184    1.5028    0.0103 C.3       1 <0>        -0.1200
      2 C2          0.0021   -0.0041    0.0020 C.ar      1 <0>        -0.0426
      3 C3          0.0057   -0.6883   -1.1997 C.ar      1 <0>        -0.1532
      4 C4          0.0244   -2.0706   -1.2107 C.ar      1 <0>        -0.0756
      5 C5          0.0391   -2.7719   -0.0203 C.ar      1 <0>        -0.2163
      6 C6          0.0355   -2.0879    1.1864 C.ar      1 <0>         0.1261
      7 C7          0.0229   -0.7004    1.1947 C.ar      1 <0>        -0.1488
      8 O1          0.0500   -2.7755    2.3585 O.3       1 <0>        -0.3021
      9 C8          0.0686   -4.2018    2.2738 C.3       1 <0>         0.0306
     10 C9          0.0829   -4.7963    3.6835 C.3       1 <0>         0.0854
     11 C10         0.2284   -6.3168    3.5944 C.3       1 <0>        -0.0422
     12 N1          0.2421   -6.8876    4.9479 N.4       1 <0>        -0.5048
     13 C11         0.3819   -8.3474    4.8623 C.3       1 <0>         0.0687
     14 C12         0.3960   -8.9330    6.2508 C.ar      1 <0>        -0.2990
     15 C13         1.5946   -9.0837    6.9238 C.ar      1 <0>        -0.0503
     16 C14         1.6111   -9.6199    8.1963 C.ar      1 <0>        -0.1827
     17 C15         0.4219  -10.0081    8.8002 C.ar      1 <0>         0.3159
     18 C16        -0.7804   -9.8553    8.1214 C.ar      1 <0>        -0.2572
     19 C17        -0.7903   -9.3131    6.8512 C.ar      1 <0>        -0.0341
     20 N2          0.4350  -10.5512   10.0870 N.2       1 <0>        -1.0821
     21 S1         -0.9838  -11.0134   10.8052 S.o2      1 <0>         2.5330
     22 O2         -1.7253   -9.8099   10.9508 O.2       1 <0>        -1.0235
     23 O3         -1.4731  -12.0720    9.9933 O.2       1 <0>        -1.0219
     24 C18        -0.4971  -11.6482   12.4333 C.3       1 <0>        -0.6358
     25 O4         -1.1396   -4.4731    4.3492 O.3       1 <0>        -0.5427
     26 H1          1.0042    1.8801    0.0026 H         1 <0>         0.0767
     27 H2         -0.5455    1.8639   -0.8728 H         1 <0>         0.0720
     28 H3         -0.5286    1.8543    0.9071 H         1 <0>         0.0709
     29 H4         -0.0065   -0.1419   -2.1312 H         1 <0>         0.1268
     30 H5          0.0272   -2.6027   -2.1505 H         1 <0>         0.1274
     31 H6          0.0530   -3.8518   -0.0294 H         1 <0>         0.1244
     32 H7          0.0248   -0.1655    2.1329 H         1 <0>         0.1324
     33 H8         -0.8194   -4.5459    1.7434 H         1 <0>         0.0752
     34 H9          0.9604   -4.5222    1.7353 H         1 <0>         0.0806
     35 H10         0.9218   -4.3832    4.2435 H         1 <0>         0.1335
     36 H11        -0.6105   -6.7299    3.0343 H         1 <0>         0.1337
     37 H12         1.1608   -6.5634    3.0866 H         1 <0>         0.1412
     38 H13         1.0187   -6.5052    5.4663 H         1 <0>         0.4254
     39 H14        -0.4571   -8.7605    4.3022 H         1 <0>         0.1204
     40 H15         1.3143   -8.5940    4.3545 H         1 <0>         0.1221
     41 H16         2.5188   -8.7820    6.4535 H         1 <0>         0.1095
     42 H17         2.5476   -9.7377    8.7213 H         1 <0>         0.1213
     43 H18        -1.7067  -10.1564    8.5879 H         1 <0>         0.1111
     44 H19        -1.7251   -9.1900    6.3246 H         1 <0>         0.1065
     45 H20         0.0017  -10.8594   12.9965 H         1 <0>         0.1192
     46 H21        -1.3840  -11.9764   12.9752 H         1 <0>         0.1089
     47 H22         0.1835  -12.4901   12.3063 H         1 <0>         0.1194
     48 H23        -1.9300   -4.8098    3.9055 H         1 <0>         0.3880
     49 H24        -0.6210   -6.6593    5.4179 H         1 <0>         0.4287
@<TRIPOS>BOND
     1    1    2 1
     2    1   26 1
     3    1   27 1
     4    1   28 1
     5    2    7 ar
     6    2    3 ar
     7    3    4 ar
     8    3   29 1
     9    4    5 ar
    10    4   30 1
    11    5    6 ar
    12    5   31 1
    13    6    7 ar
    14    6    8 1
    15    7   32 1
    16    8    9 1
    17    9   10 1
    18    9   33 1
    19    9   34 1
    20   10   11 1
    21   10   25 1
    22   10   35 1
    23   11   12 1
    24   11   36 1
    25   11   37 1
    26   12   13 1
    27   12   38 1
    28   12   49 1
    29   13   14 1
    30   13   39 1
    31   13   40 1
    32   14   19 ar
    33   14   15 ar
    34   15   16 ar
    35   15   41 1
    36   16   17 ar
    37   16   42 1
    38   17   18 ar
    39   17   20 1
    40   18   19 ar
    41   18   43 1
    42   19   44 1
    43   20   21 1
    44   21   22 2
    45   21   23 2
    46   21   24 1
    47   24   45 1
    48   24   46 1
    49   24   47 1
    50   25   48 1
@<TRIPOS>MOLECULE
CHEMBL95966__1
   49    50     0     0     0
SMALL
USER_CHARGES

@<TRIPOS>ATOM
      1 C1         -0.0184    1.5028    0.0103 C.3       1 <0>        -0.1200
      2 C2          0.0021   -0.0041    0.0020 C.ar      1 <0>        -0.0426
      3 C3          0.0057   -0.6883   -1.1997 C.ar      1 <0>        -0.1531
      4 C4          0.0244   -2.0706   -1.2107 C.ar      1 <0>        -0.0756
      5 C5          0.0391   -2.7719   -0.0203 C.ar      1 <0>        -0.2163
      6 C6          0.0355   -2.0879    1.1864 C.ar      1 <0>         0.1261
      7 C7          0.0229   -0.7004    1.1947 C.ar      1 <0>        -0.1488
      8 O1          0.0500   -2.7755    2.3585 O.3       1 <0>        -0.3022
      9 C8          0.0686   -4.2018    2.2738 C.3       1 <0>         0.0307
     10 C9          0.0829   -4.7963    3.6835 C.3       1 <0>         0.0854
     11 C10        -0.0230   -6.3201    3.5955 C.3       1 <0>        -0.0418
     12 N1         -0.1298   -6.8825    4.9484 N.4       1 <0>        -0.5054
     13 C11        -0.2315   -8.3455    4.8639 C.3       1 <0>         0.0686
     14 C12        -0.3410   -8.9225    6.2518 C.ar      1 <0>        -0.2990
     15 C13         0.8030   -9.2676    6.9476 C.ar      1 <0>        -0.0498
     16 C14         0.7062   -9.7966    8.2197 C.ar      1 <0>        -0.1825
     17 C15        -0.5422   -9.9818    8.8000 C.ar      1 <0>         0.3159
     18 C16        -1.6894   -9.6340    8.0982 C.ar      1 <0>        -0.2573
     19 C17        -1.5851   -9.1002    6.8287 C.ar      1 <0>        -0.0347
     20 N2         -0.6437  -10.5169   10.0862 N.2       1 <0>        -1.0821
     21 S1         -2.1329  -10.7369   10.7763 S.o2      1 <0>         2.5331
     22 O2         -2.6682   -9.4272   10.9088 O.2       1 <0>        -1.0237
     23 O3         -2.7746  -11.7019    9.9540 O.2       1 <0>        -1.0219
     24 C18        -1.7891  -11.4399   12.4128 C.3       1 <0>        -0.6358
     25 O4          1.3023   -4.4406    4.3381 O.3       1 <0>        -0.5421
     26 H1          1.0042    1.8801    0.0026 H         1 <0>         0.0767
     27 H2         -0.5455    1.8639   -0.8728 H         1 <0>         0.0720
     28 H3         -0.5286    1.8543    0.9071 H         1 <0>         0.0709
     29 H4         -0.0065   -0.1419   -2.1312 H         1 <0>         0.1268
     30 H5          0.0272   -2.6027   -2.1505 H         1 <0>         0.1274
     31 H6          0.0530   -3.8518   -0.0294 H         1 <0>         0.1244
     32 H7          0.0248   -0.1655    2.1329 H         1 <0>         0.1324
     33 H8         -0.8194   -4.5459    1.7434 H         1 <0>         0.0804
     34 H9          0.9604   -4.5222    1.7353 H         1 <0>         0.0754
     35 H10        -0.7616   -4.4056    4.2512 H         1 <0>         0.1330
     36 H11        -0.9077   -6.5902    3.0189 H         1 <0>         0.1404
     37 H12         0.8655   -6.7184    3.1056 H         1 <0>         0.1346
     38 H13         0.6892   -6.6325    5.4821 H         1 <0>         0.4287
     39 H14        -1.1162   -8.6156    4.2873 H         1 <0>         0.1210
     40 H15         0.6571   -8.7438    4.3740 H         1 <0>         0.1216
     41 H16         1.7733   -9.1237    6.4957 H         1 <0>         0.1094
     42 H17         1.6001  -10.0663    8.7625 H         1 <0>         0.1213
     43 H18        -2.6615   -9.7770    8.5464 H         1 <0>         0.1111
     44 H19        -2.4764   -8.8255    6.2842 H         1 <0>         0.1067
     45 H20        -1.1779  -10.7432   12.9864 H         1 <0>         0.1192
     46 H21        -2.7283  -11.6161   12.9372 H         1 <0>         0.1089
     47 H22        -1.2546  -12.3829   12.2981 H         1 <0>         0.1195
     48 H23         2.0973   -4.7563    3.8873 H         1 <0>         0.3877
     49 H24        -0.9523   -6.5138    5.4019 H         1 <0>         0.4256
@<TRIPOS>BOND
     1    1    2 1
     2    1   26 1
     3    1   27 1
     4    1   28 1
     5    2    7 ar
     6    2    3 ar
     7    3    4 ar
     8    3   29 1
     9    4    5 ar
    10    4   30 1
    11    5    6 ar
    12    5   31 1
    13    6    7 ar
    14    6    8 1
    15    7   32 1
    16    8    9 1
    17    9   10 1
    18    9   33 1
    19    9   34 1
    20   10   11 1
    21   10   25 1
    22   10   35 1
    23   11   12 1
    24   11   36 1
    25   11   37 1
    26   12   13 1
    27   12   38 1
    28   12   49 1
    29   13   14 1
    30   13   39 1
    31   13   40 1
    32   14   19 ar
    33   14   15 ar
    34   15   16 ar
    35   15   41 1
    36   16   17 ar
    37   16   42 1
    38   17   18 ar
    39   17   20 1
    40   18   19 ar
    41   18   43 1
    42   19   44 1
    43   20   21 1
    44   21   22 2
    45   21   23 2
    46   21   24 1
    47   24   45 1
    48   24   46 1
    49   24   47 1
    50   25   48 1
@<TRIPOS>MOLECULE
CHEMBL472090
   71    74     0     0     0
SMALL
USER_CHARGES

@<TRIPOS>ATOM
      1 C1         -0.5930    1.8168   -0.3850 C.3       1 <0>        -0.6480
      2 S1         -0.6226    0.0037   -0.4327 S.o2      1 <0>         2.5650
      3 O1         -0.0144   -0.5266    0.7370 O.2       1 <0>        -1.0062
      4 O2         -1.8993   -0.4541   -0.8565 O.2       1 <0>        -1.0059
      5 N1          0.4040   -0.4064   -1.6657 N.2       1 <0>        -1.0353
      6 C2          0.6027   -1.6591   -1.9576 C.2       1 <0>         0.5173
      7 O3         -0.0295   -2.6260   -1.2540 O.3       1 <0>        -0.7115
      8 C3          1.5181   -2.0248   -3.0572 C.ar      1 <0>        -0.0711
      9 C4          1.7277   -3.3687   -3.3753 C.ar      1 <0>        -0.0383
     10 C5          2.5804   -3.7090   -4.4001 C.ar      1 <0>        -0.1565
     11 C6          3.2387   -2.7137   -5.1246 C.ar      1 <0>        -0.0349
     12 C7          3.0346   -1.3720   -4.8130 C.ar      1 <0>        -0.2160
     13 C8          2.1736   -1.0241   -3.7869 C.ar      1 <0>         0.1789
     14 O4          1.9684    0.2832   -3.4847 O.3       1 <0>        -0.2375
     15 C9          2.5769    1.2506   -4.3427 C.3       1 <0>         0.0675
     16 C10         4.0155    1.5453   -3.8702 C.3       1 <0>        -0.1474
     17 C11         4.1948    3.0630   -4.1226 C.3       1 <0>        -0.1217
     18 C12         2.8058    3.6379   -3.7494 C.3       1 <0>        -0.1232
     19 C13         1.8077    2.5811   -4.2659 C.3       1 <0>        -0.1220
     20 C14         4.1575   -3.0860   -6.2277 C.ar      1 <0>        -0.0012
     21 C15         4.8212   -2.0956   -6.9497 C.ar      1 <0>        -0.1124
     22 C16         5.6749   -2.4479   -7.9752 C.ar      1 <0>        -0.1039
     23 C17         5.8722   -3.7811   -8.2872 C.ar      1 <0>        -0.1249
     24 C18         5.2163   -4.7683   -7.5740 C.ar      1 <0>        -0.1034
     25 C19         4.3650   -4.4279   -6.5425 C.ar      1 <0>        -0.1106
     26 C20         6.8050   -4.1593   -9.4087 C.3       1 <0>        -0.0952
     27 C21         8.2196   -4.3430   -8.8555 C.3       1 <0>        -0.0079
     28 N2          9.1289   -4.7118   -9.9488 N.4       1 <0>        -0.5056
     29 C22        10.4871   -4.8882   -9.4176 C.3       1 <0>        -0.0420
     30 C23        11.4342   -5.2722  -10.5562 C.3       1 <0>         0.1353
     31 H1         11.4376   -4.4828  -11.3078 H         1 <0>         0.1310
     32 C24        12.8275   -5.4532  -10.0113 C.ar      1 <0>        -0.1429
     33 C25        13.2061   -6.6680   -9.4713 C.ar      1 <0>        -0.1065
     34 C26        14.4842   -6.8340   -8.9714 C.ar      1 <0>        -0.1117
     35 C27        15.3838   -5.7853   -9.0121 C.ar      1 <0>        -0.0997
     36 C28        15.0055   -4.5707   -9.5529 C.ar      1 <0>        -0.1127
     37 C29        13.7288   -4.4060  -10.0567 C.ar      1 <0>        -0.1021
     38 O5         10.9929   -6.4943  -11.1511 O.3       1 <0>        -0.5488
     39 H2          0.4240    2.1587   -0.1934 H         1 <0>         0.1159
     40 H3         -0.9347    2.2110   -1.3421 H         1 <0>         0.1157
     41 H4         -1.2508    2.1702    0.4091 H         1 <0>         0.1047
     42 H5          1.2204   -4.1410   -2.8163 H         1 <0>         0.1440
     43 H6          2.7410   -4.7487   -4.6444 H         1 <0>         0.1233
     44 H7          3.5450   -0.6032   -5.3742 H         1 <0>         0.1286
     45 H8          2.5879    0.8844   -5.3692 H         1 <0>         0.0666
     46 H9          4.1223    1.3198   -2.8092 H         1 <0>         0.0837
     47 H10         4.7344    0.9735   -4.4570 H         1 <0>         0.0627
     48 H11         4.9694    3.4734   -3.4749 H         1 <0>         0.0675
     49 H12         4.4238    3.2559   -5.1707 H         1 <0>         0.0641
     50 H13         2.7172    3.7504   -2.6689 H         1 <0>         0.0714
     51 H14         2.6418    4.5932   -4.2480 H         1 <0>         0.0662
     52 H15         1.4461    2.8610   -5.2553 H         1 <0>         0.0713
     53 H16         0.9703    2.4889   -3.5742 H         1 <0>         0.0903
     54 H17         4.6673   -1.0544   -6.7074 H         1 <0>         0.1295
     55 H18         6.1897   -1.6814   -8.5353 H         1 <0>         0.1222
     56 H19         5.3738   -5.8075   -7.8222 H         1 <0>         0.1231
     57 H20         3.8568   -5.1997   -5.9834 H         1 <0>         0.1346
     58 H21         6.4685   -5.0915   -9.8625 H         1 <0>         0.0937
     59 H22         6.8085   -3.3699  -10.1603 H         1 <0>         0.0934
     60 H23         8.5562   -3.4109   -8.4018 H         1 <0>         0.1337
     61 H24         8.2162   -5.1325   -8.1039 H         1 <0>         0.1333
     62 H25         8.8174   -5.5747  -10.3688 H         1 <0>         0.4311
     63 H26        10.8237   -3.9560   -8.9639 H         1 <0>         0.1443
     64 H27        10.4837   -5.6776   -8.6660 H         1 <0>         0.1365
     65 H28        12.5032   -7.4874   -9.4395 H         1 <0>         0.1226
     66 H29        14.7797   -7.7830   -8.5489 H         1 <0>         0.1313
     67 H30        16.3821   -5.9147   -8.6209 H         1 <0>         0.1313
     68 H31        15.7083   -3.7512   -9.5844 H         1 <0>         0.1317
     69 H32        13.4344   -3.4582  -10.4826 H         1 <0>         0.1275
     70 H33        10.9649   -7.2422  -10.5387 H         1 <0>         0.3883
     71 H34         9.1321   -3.9810  -10.6445 H         1 <0>         0.4283
@<TRIPOS>BOND
     1    1    2 1
     2    1   39 1
     3    1   40 1
     4    1   41 1
     5    2    3 2
     6    2    4 2
     7    2    5 1
     8    5    6 2
     9    6    7 1
    10    6    8 1
    11    8   13 ar
    12    8    9 ar
    13    9   10 ar
    14    9   42 1
    15   10   11 ar
    16   10   43 1
    17   11   12 ar
    18   11   20 1
    19   12   13 ar
    20   12   44 1
    21   13   14 1
    22   14   15 1
    23   15   19 1
    24   15   16 1
    25   15   45 1
    26   16   17 1
    27   16   46 1
    28   16   47 1
    29   17   18 1
    30   17   48 1
    31   17   49 1
    32   18   19 1
    33   18   50 1
    34   18   51 1
    35   19   52 1
    36   19   53 1
    37   20   25 ar
    38   20   21 ar
    39   21   22 ar
    40   21   54 1
    41   22   23 ar
    42   22   55 1
    43   23   24 ar
    44   23   26 1
    45   24   25 ar
    46   24   56 1
    47   25   57 1
    48   26   27 1
    49   26   58 1
    50   26   59 1
    51   27   28 1
    52   27   60 1
    53   27   61 1
    54   28   29 1
    55   28   62 1
    56   28   71 1
    57   29   30 1
    58   29   63 1
    59   29   64 1
    60   30   31 1
    61   30   32 1
    62   30   38 1
    63   32   37 ar
    64   32   33 ar
    65   33   34 ar
    66   33   65 1
    67   34   35 ar
    68   34   66 1
    69   35   36 ar
    70   35   67 1
    71   36   37 ar
    72   36   68 1
    73   37   69 1
    74   38   70 1
@<TRIPOS>MOLECULE
CHEMBL1082500
   66    70     0     0     0
SMALL
USER_CHARGES

@<TRIPOS>ATOM
      1 C1         -0.0173    1.4248    0.0099 C.3       1 <0>         0.0255
      2 O1          0.0021   -0.0041    0.0020 O.3       1 <0>        -0.3151
      3 C2          0.6058   -0.6071   -1.0557 C.ar      1 <0>         0.1339
      4 C3          1.1730    0.1607   -2.0624 C.ar      1 <0>        -0.2072
      5 C4          1.7865   -0.4547   -3.1363 C.ar      1 <0>        -0.0787
      6 C5          1.8352   -1.8346   -3.2086 C.ar      1 <0>        -0.1349
      7 C6          1.2702   -2.6021   -2.2068 C.ar      1 <0>        -0.0736
      8 C7          0.6609   -1.9915   -1.1277 C.ar      1 <0>        -0.1482
      9 C8          2.5046   -2.5033   -4.3815 C.3       1 <0>        -0.0688
     10 C9          3.9857   -2.7227   -4.0663 C.3       1 <0>        -0.0951
     11 C10         4.6864   -1.3679   -3.9302 C.3       1 <0>        -0.1454
     12 C11         6.1812   -1.5944   -3.6941 C.3       1 <0>        -0.0058
     13 N1          6.7532   -2.3311   -4.8276 N.4       1 <0>        -0.3773
     14 C12         6.1362   -3.6597   -4.9204 C.3       1 <0>        -0.0134
     15 C13         4.6397   -3.5127   -5.2036 C.3       1 <0>        -0.1416
     16 C14         8.2018   -2.4780   -4.6333 C.3       1 <0>        -0.0433
     17 C15         8.8183   -3.1346   -5.8701 C.3       1 <0>         0.0855
     18 C16        10.3038   -3.4013   -5.6190 C.3       1 <0>         0.0287
     19 O2         10.8528   -4.1186   -6.7264 O.3       1 <0>        -0.2957
     20 C17        12.1719   -4.4371   -6.6620 C.ar      1 <0>         0.1791
     21 C18        12.9217   -4.0739   -5.5569 C.ar      1 <0>        -0.2456
     22 C19        14.2667   -4.3984   -5.4907 C.ar      1 <0>        -0.0442
     23 C20        14.8750   -5.0844   -6.5205 C.ar      1 <0>        -0.1711
     24 C21        14.1398   -5.4591   -7.6415 C.ar      1 <0>         0.1818
     25 C22        12.7765   -5.1379   -7.7084 C.ar      1 <0>        -0.1299
     26 C23        12.2838   -5.6680   -8.9925 C.ar      1 <0>        -0.0922
     27 C24        11.0398   -5.6592   -9.6195 C.ar      1 <0>        -0.0606
     28 C25        10.8907   -6.2550  -10.8533 C.ar      1 <0>        -0.1468
     29 C26        11.9731   -6.8624  -11.4710 C.ar      1 <0>        -0.0826
     30 C27        13.2093   -6.8787  -10.8617 C.ar      1 <0>        -0.1381
     31 C28        13.3801   -6.2817   -9.6165 C.ar      1 <0>         0.1337
     32 N2         14.4854   -6.1375   -8.7965 N.pl3     1 <0>        -0.6121
     33 H1         15.3725   -6.4749   -8.9970 H         1 <0>         0.4226
     34 O3          8.6739   -2.2636   -6.9937 O.3       1 <0>        -0.5417
     35 H2          1.0053    1.8021    0.0021 H         1 <0>         0.0563
     36 H3         -0.5445    1.7859   -0.8732 H         1 <0>         0.0582
     37 H4         -0.5275    1.7763    0.9067 H         1 <0>         0.1054
     38 H5          1.1347    1.2385   -2.0068 H         1 <0>         0.1301
     39 H6          2.2283    0.1425   -3.9203 H         1 <0>         0.1223
     40 H7          1.3092   -3.6798   -2.2657 H         1 <0>         0.1293
     41 H8          0.2237   -2.5913   -0.3432 H         1 <0>         0.1338
     42 H9          2.0276   -3.4646   -4.5726 H         1 <0>         0.0829
     43 H10         2.4108   -1.8695   -5.2632 H         1 <0>         0.0773
     44 H11         4.0814   -3.2792   -3.1340 H         1 <0>         0.0912
     45 H12         4.5456   -0.7917   -4.8447 H         1 <0>         0.0892
     46 H13         4.2633   -0.8224   -3.0867 H         1 <0>         0.1160
     47 H14         6.6832   -0.6318   -3.5966 H         1 <0>         0.1298
     48 H15         6.3210   -2.1703   -2.7793 H         1 <0>         0.1291
     49 H16         6.6049   -4.2218   -5.7281 H         1 <0>         0.1321
     50 H17         6.2769   -4.1916   -3.9794 H         1 <0>         0.1299
     51 H18         4.1831   -4.5002   -5.2704 H         1 <0>         0.1146
     52 H19         4.4979   -2.9810   -6.1446 H         1 <0>         0.0909
     53 H20         8.6496   -1.4958   -4.4822 H         1 <0>         0.1390
     54 H21         8.3898   -3.1014   -3.7592 H         1 <0>         0.1435
     55 H22         8.3092   -4.0769   -6.0730 H         1 <0>         0.1337
     56 H23        10.8288   -2.4530   -5.5041 H         1 <0>         0.0783
     57 H24        10.4183   -3.9924   -4.7105 H         1 <0>         0.0822
     58 H25        12.4570   -3.5357   -4.7440 H         1 <0>         0.1278
     59 H26        14.8443   -4.1111   -4.6246 H         1 <0>         0.1352
     60 H27        15.9245   -5.3314   -6.4573 H         1 <0>         0.1305
     61 H28        10.1949   -5.1873   -9.1401 H         1 <0>         0.1251
     62 H29         9.9269   -6.2490  -11.3406 H         1 <0>         0.1275
     63 H30        11.8465   -7.3270  -12.4377 H         1 <0>         0.1320
     64 H31        14.0460   -7.3549  -11.3513 H         1 <0>         0.1271
     65 H32         9.1034   -1.4043   -6.8830 H         1 <0>         0.3901
     66 H33         6.5803   -1.8208   -5.6807 H         1 <0>         0.4280
@<TRIPOS>BOND
     1    1    2 1
     2    1   35 1
     3    1   36 1
     4    1   37 1
     5    2    3 1
     6    3    8 ar
     7    3    4 ar
     8    4    5 ar
     9    4   38 1
    10    5    6 ar
    11    5   39 1
    12    6    7 ar
    13    6    9 1
    14    7    8 ar
    15    7   40 1
    16    8   41 1
    17    9   10 1
    18    9   42 1
    19    9   43 1
    20   10   15 1
    21   10   11 1
    22   10   44 1
    23   11   12 1
    24   11   45 1
    25   11   46 1
    26   12   13 1
    27   12   47 1
    28   12   48 1
    29   13   14 1
    30   13   16 1
    31   13   66 1
    32   14   15 1
    33   14   49 1
    34   14   50 1
    35   15   51 1
    36   15   52 1
    37   16   17 1
    38   16   53 1
    39   16   54 1
    40   17   18 1
    41   17   34 1
    42   17   55 1
    43   18   19 1
    44   18   56 1
    45   18   57 1
    46   19   20 1
    47   20   25 ar
    48   20   21 ar
    49   21   22 ar
    50   21   58 1
    51   22   23 ar
    52   22   59 1
    53   23   24 ar
    54   23   60 1
    55   24   32 1
    56   24   25 ar
    57   25   26 1
    58   26   31 ar
    59   26   27 ar
    60   27   28 ar
    61   27   61 1
    62   28   29 ar
    63   28   62 1
    64   29   30 ar
    65   29   63 1
    66   30   31 ar
    67   30   64 1
    68   31   32 1
    69   32   33 1
    70   34   65 1
@<TRIPOS>MOLECULE
CHEMBL1082500__1
   66    70     0     0     0
SMALL
USER_CHARGES

@<TRIPOS>ATOM
      1 C1          0.4848    1.6919    0.6017 C.3       1 <0>         0.0254
      2 O1          0.4826    0.2632    0.6338 O.3       1 <0>        -0.3152
      3 C2          0.9813   -0.3791   -0.4551 C.ar      1 <0>         0.1340
      4 C3          1.4680    0.3506   -1.5299 C.ar      1 <0>        -0.2069
      5 C4          1.9748   -0.3047   -2.6354 C.ar      1 <0>        -0.0781
      6 C5          1.9967   -1.6867   -2.6714 C.ar      1 <0>        -0.1353
      7 C6          1.5118   -2.4163   -1.6017 C.ar      1 <0>        -0.0738
      8 C7          1.0096   -1.7657   -0.4913 C.ar      1 <0>        -0.1484
      9 C8          2.5497   -2.3990   -3.8789 C.3       1 <0>        -0.0685
     10 C9          4.0495   -2.6349   -3.6894 C.3       1 <0>        -0.0953
     11 C10         4.7792   -1.2889   -3.6552 C.3       1 <0>        -0.1438
     12 C11         6.2856   -1.5343   -3.5456 C.3       1 <0>        -0.0123
     13 N1          6.7440   -2.3118   -4.7031 N.4       1 <0>        -0.3769
     14 C12         6.1019   -3.6317   -4.7023 C.3       1 <0>        -0.0058
     15 C13         4.5885   -3.4671   -4.8565 C.3       1 <0>        -0.1430
     16 C14         8.2018   -2.4780   -4.6333 C.3       1 <0>        -0.0435
     17 C15         8.8788   -1.1153   -4.7943 C.3       1 <0>         0.0860
     18 C16        10.3970   -1.2877   -4.7159 C.3       1 <0>         0.0288
     19 O2         11.0244   -0.0042   -4.7493 O.3       1 <0>        -0.2957
     20 C17        12.3814    0.0207   -4.6880 C.ar      1 <0>         0.1791
     21 C18        13.0954   -1.1618   -4.6034 C.ar      1 <0>        -0.2455
     22 C19        14.4789   -1.1370   -4.5408 C.ar      1 <0>        -0.0442
     23 C20        15.1613    0.0609   -4.5613 C.ar      1 <0>        -0.1711
     24 C21        14.4631    1.2621   -4.6455 C.ar      1 <0>         0.1818
     25 C22        13.0629    1.2399   -4.7157 C.ar      1 <0>        -0.1300
     26 C23        12.6255    2.6448   -4.8036 C.ar      1 <0>        -0.0921
     27 C24        11.3771    3.2568   -4.8906 C.ar      1 <0>        -0.0606
     28 C25        11.2913    4.6305   -4.9608 C.ar      1 <0>        -0.1469
     29 C26        12.4420    5.4039   -4.9455 C.ar      1 <0>        -0.0827
     30 C27        13.6834    4.8114   -4.8603 C.ar      1 <0>        -0.1380
     31 C28        13.7906    3.4259   -4.7876 C.ar      1 <0>         0.1337
     32 N2         14.8810    2.5804   -4.6823 N.pl3     1 <0>        -0.6121
     33 H1         15.8063    2.8698   -4.6515 H         1 <0>         0.4226
     34 O3          8.5277   -0.5557   -6.0614 O.3       1 <0>        -0.5422
     35 H2          1.5081    2.0513    0.4927 H         1 <0>         0.0566
     36 H3         -0.1133    2.0373   -0.2415 H         1 <0>         0.0582
     37 H4          0.0614    2.0768    1.5294 H         1 <0>         0.1054
     38 H5          1.4505    1.4301   -1.5025 H         1 <0>         0.1303
     39 H6          2.3539    0.2630   -3.4723 H         1 <0>         0.1227
     40 H7          1.5297   -3.4957   -1.6324 H         1 <0>         0.1289
     41 H8          0.6350   -2.3360    0.3458 H         1 <0>         0.1336
     42 H9          2.0436   -3.3569   -3.9990 H         1 <0>         0.0824
     43 H10         2.3873   -1.7883   -4.7670 H         1 <0>         0.0772
     44 H11         4.2194   -3.1668   -2.7534 H         1 <0>         0.0911
     45 H12         4.5662   -0.7360   -4.5701 H         1 <0>         0.0898
     46 H13         4.4406   -0.7131   -2.7940 H         1 <0>         0.1157
     47 H14         6.8082   -0.5780   -3.5208 H         1 <0>         0.1311
     48 H15         6.4976   -2.0870   -2.6303 H         1 <0>         0.1292
     49 H16         6.4889   -4.2240   -5.5316 H         1 <0>         0.1306
     50 H17         6.3178   -4.1397   -3.7624 H         1 <0>         0.1293
     51 H18         4.1135   -4.4481   -4.8539 H         1 <0>         0.1145
     52 H19         4.3714   -2.9594   -5.7964 H         1 <0>         0.0901
     53 H20         8.4729   -2.9066   -3.6685 H         1 <0>         0.1439
     54 H21         8.5303   -3.1434   -5.4317 H         1 <0>         0.1388
     55 H22         8.5472   -0.4486   -3.9982 H         1 <0>         0.1338
     56 H23        10.6576   -1.7954   -3.7873 H         1 <0>         0.0825
     57 H24        10.7395   -1.8817   -5.5633 H         1 <0>         0.0782
     58 H25        12.5725   -2.1066   -4.5858 H         1 <0>         0.1278
     59 H26        15.0282   -2.0645   -4.4749 H         1 <0>         0.1352
     60 H27        16.2402    0.0672   -4.5116 H         1 <0>         0.1305
     61 H28        10.4793    2.6566   -4.9034 H         1 <0>         0.1250
     62 H29        10.3242    5.1064   -5.0282 H         1 <0>         0.1273
     63 H30        12.3648    6.4797   -5.0013 H         1 <0>         0.1319
     64 H31        14.5736    5.4228   -4.8495 H         1 <0>         0.1271
     65 H32         8.7928   -1.0971   -6.8175 H         1 <0>         0.3898
     66 H33         6.5035   -1.8225   -5.5522 H         1 <0>         0.4277
@<TRIPOS>BOND
     1    1    2 1
     2    1   35 1
     3    1   36 1
     4    1   37 1
     5    2    3 1
     6    3    8 ar
     7    3    4 ar
     8    4    5 ar
     9    4   38 1
    10    5    6 ar
    11    5   39 1
    12    6    7 ar
    13    6    9 1
    14    7    8 ar
    15    7   40 1
    16    8   41 1
    17    9   10 1
    18    9   42 1
    19    9   43 1
    20   10   15 1
    21   10   11 1
    22   10   44 1
    23   11   12 1
    24   11   45 1
    25   11   46 1
    26   12   13 1
    27   12   47 1
    28   12   48 1
    29   13   14 1
    30   13   16 1
    31   13   66 1
    32   14   15 1
    33   14   49 1
    34   14   50 1
    35   15   51 1
    36   15   52 1
    37   16   17 1
    38   16   53 1
    39   16   54 1
    40   17   18 1
    41   17   34 1
    42   17   55 1
    43   18   19 1
    44   18   56 1
    45   18   57 1
    46   19   20 1
    47   20   25 ar
    48   20   21 ar
    49   21   22 ar
    50   21   58 1
    51   22   23 ar
    52   22   59 1
    53   23   24 ar
    54   23   60 1
    55   24   32 1
    56   24   25 ar
    57   25   26 1
    58   26   31 ar
    59   26   27 ar
    60   27   28 ar
    61   27   61 1
    62   28   29 ar
    63   28   62 1
    64   29   30 ar
    65   29   63 1
    66   30   31 ar
    67   30   64 1
    68   31   32 1
    69   32   33 1
    70   34   65 1
@<TRIPOS>MOLECULE
CHEMBL40297
   55    57     0     0     0
SMALL
USER_CHARGES

@<TRIPOS>ATOM
      1 C1         -0.0164    1.3568    0.0095 C.ar      1 <0>        -0.0996
      2 C2          1.1685    2.0903    0.0021 C.ar      1 <0>        -0.1192
      3 C3          2.3786    1.4667   -0.0127 C.ar      1 <0>        -0.0922
      4 C4          2.4373    0.0638   -0.0208 C.ar      1 <0>        -0.0665
      5 C5          1.2329   -0.6827   -0.0133 C.ar      1 <0>        -0.0209
      6 C6          0.0021   -0.0041    0.0020 C.ar      1 <0>        -0.1122
      7 C7          1.2917   -2.0866   -0.0208 C.ar      1 <0>        -0.1292
      8 C8          2.5010   -2.7126   -0.0352 C.ar      1 <0>        -0.0845
      9 C9          3.6868   -1.9838   -0.0426 C.ar      1 <0>        -0.2158
     10 C10         3.6713   -0.6172   -0.0357 C.ar      1 <0>         0.1350
     11 O1          4.8369    0.0798   -0.0435 O.3       1 <0>        -0.2975
     12 C11         6.0470   -0.6800   -0.0585 C.3       1 <0>         0.0288
     13 C12         7.2459    0.2705   -0.0655 C.3       1 <0>         0.0858
     14 C13         8.5370   -0.5381   -0.2073 C.3       1 <0>        -0.0408
     15 N1          9.6881    0.3746   -0.2139 N.4       1 <0>        -0.4991
     16 C14        10.9278   -0.4018   -0.3501 C.3       1 <0>        -0.0205
     17 C15        12.1267    0.5487   -0.3570 C.3       1 <0>         0.0998
     18 N2         13.3629   -0.2255   -0.4928 N.pl3     1 <0>        -0.7457
     19 C16        14.5973    0.4288   -0.5237 C.ar      1 <0>         0.1884
     20 C17        14.6540    1.8130   -0.4200 C.ar      1 <0>        -0.1262
     21 C18        15.8751    2.4569   -0.4504 C.ar      1 <0>        -0.0776
     22 C19        17.0419    1.7246   -0.5840 C.ar      1 <0>         0.0027
     23 C20        16.9885    0.3459   -0.6874 C.ar      1 <0>        -0.6208
     24 C21        15.7700   -0.3038   -0.6523 C.ar      1 <0>        -0.0691
     25 S1         18.4764   -0.5823   -0.8574 S.o2      1 <0>         2.6969
     26 O2         19.3628   -0.1171    0.1513 O.2       1 <0>        -0.9380
     27 O3         18.0939   -1.9466   -0.9653 O.2       1 <0>        -0.9583
     28 N3         19.1515   -0.1637   -2.3104 N.pl3     1 <0>        -1.2440
     29 Cl1        18.5754    2.5375   -0.6224 Cl        1 <0>        -0.0278
     30 O4          7.2771    1.0069    1.1588 O.3       1 <0>        -0.5430
     31 H1         -0.9633    1.8759    0.0259 H         1 <0>         0.1295
     32 H2          1.1262    3.1695    0.0079 H         1 <0>         0.1277
     33 H3          3.2887    2.0480   -0.0187 H         1 <0>         0.1298
     34 H4         -0.9241   -0.5596    0.0082 H         1 <0>         0.1344
     35 H5          0.3810   -2.6672   -0.0149 H         1 <0>         0.1333
     36 H6          2.5405   -3.7919   -0.0406 H         1 <0>         0.1284
     37 H7          4.6324   -2.5056   -0.0537 H         1 <0>         0.1232
     38 H8          6.0900   -1.3125    0.8281 H         1 <0>         0.0785
     39 H9          6.0731   -1.3042   -0.9517 H         1 <0>         0.0833
     40 H10         7.1565    0.9621   -0.9033 H         1 <0>         0.1373
     41 H11         8.6265   -1.2296    0.6305 H         1 <0>         0.1425
     42 H12         8.5133   -1.0998   -1.1411 H         1 <0>         0.1497
     43 H13         9.6053    1.0147   -0.9895 H         1 <0>         0.4340
     44 H14        11.0172   -1.0933    0.4877 H         1 <0>         0.1417
     45 H15        10.9040   -0.9635   -1.2839 H         1 <0>         0.1423
     46 H16        12.0372    1.2403   -1.1948 H         1 <0>         0.0849
     47 H17        12.1504    1.1104    0.5768 H         1 <0>         0.0849
     48 H18        13.3247   -1.1923   -0.5612 H         1 <0>         0.4119
     49 H19        13.7438    2.3849   -0.3161 H         1 <0>         0.1371
     50 H20        15.9197    3.5330   -0.3702 H         1 <0>         0.1497
     51 H21        15.7292   -1.3804   -0.7287 H         1 <0>         0.1561
     52 H22        18.7126    0.4879   -2.8793 H         1 <0>         0.4165
     53 H23        19.9858   -0.5701   -2.5927 H         1 <0>         0.4266
     54 H24         7.3557    0.4542    1.9483 H         1 <0>         0.3912
     55 H25         9.7101    0.8945    0.6505 H         1 <0>         0.4366
@<TRIPOS>BOND
     1    1    6 ar
     2    1    2 ar
     3    1   31 1
     4    2    3 ar
     5    2   32 1
     6    3    4 ar
     7    3   33 1
     8    4   10 ar
     9    4    5 ar
    10    5    6 ar
    11    5    7 ar
    12    6   34 1
    13    7    8 ar
    14    7   35 1
    15    8    9 ar
    16    8   36 1
    17    9   10 ar
    18    9   37 1
    19   10   11 1
    20   11   12 1
    21   12   13 1
    22   12   38 1
    23   12   39 1
    24   13   14 1
    25   13   30 1
    26   13   40 1
    27   14   15 1
    28   14   41 1
    29   14   42 1
    30   15   16 1
    31   15   43 1
    32   15   55 1
    33   16   17 1
    34   16   44 1
    35   16   45 1
    36   17   18 1
    37   17   46 1
    38   17   47 1
    39   18   19 1
    40   18   48 1
    41   19   24 ar
    42   19   20 ar
    43   20   21 ar
    44   20   49 1
    45   21   22 ar
    46   21   50 1
    47   22   23 ar
    48   22   29 1
    49   23   24 ar
    50   23   25 1
    51   24   51 1
    52   25   26 2
    53   25   27 2
    54   25   28 1
    55   28   52 1
    56   28   53 1
    57   30   54 1
@<TRIPOS>MOLECULE
CHEMBL40297__1
   55    57     0     0     0
SMALL
USER_CHARGES

@<TRIPOS>ATOM
      1 C1         -0.0164    1.3568    0.0095 C.ar      1 <0>        -0.0996
      2 C2          1.1685    2.0903    0.0021 C.ar      1 <0>        -0.1192
      3 C3          2.3786    1.4667   -0.0127 C.ar      1 <0>        -0.0922
      4 C4          2.4373    0.0638   -0.0208 C.ar      1 <0>        -0.0665
      5 C5          1.2329   -0.6827   -0.0133 C.ar      1 <0>        -0.0209
      6 C6          0.0021   -0.0041    0.0020 C.ar      1 <0>        -0.1122
      7 C7          1.2917   -2.0866   -0.0208 C.ar      1 <0>        -0.1292
      8 C8          2.5010   -2.7126   -0.0352 C.ar      1 <0>        -0.0845
      9 C9          3.6868   -1.9838   -0.0426 C.ar      1 <0>        -0.2158
     10 C10         3.6713   -0.6172   -0.0357 C.ar      1 <0>         0.1350
     11 O1          4.8369    0.0798   -0.0435 O.3       1 <0>        -0.2976
     12 C11         6.0470   -0.6800   -0.0585 C.3       1 <0>         0.0288
     13 C12         7.2459    0.2705   -0.0655 C.3       1 <0>         0.0859
     14 C13         8.5394   -0.5393    0.0442 C.3       1 <0>        -0.0406
     15 N1          9.6823    0.3766    0.1580 N.4       1 <0>        -0.4996
     16 C14        10.9243   -0.4009    0.2633 C.3       1 <0>        -0.0206
     17 C15        12.1146    0.5530    0.3818 C.3       1 <0>         0.0997
     18 N2         13.3532   -0.2224    0.4868 N.pl3     1 <0>        -0.7457
     19 C16        14.5808    0.4346    0.6057 C.ar      1 <0>         0.1885
     20 C17        14.6277    1.8228    0.6302 C.ar      1 <0>        -0.1263
     21 C18        15.8421    2.4693    0.7483 C.ar      1 <0>        -0.0776
     22 C19        17.0119    1.7356    0.8421 C.ar      1 <0>         0.0026
     23 C20        16.9682    0.3529    0.8179 C.ar      1 <0>        -0.6208
     24 C21        15.7557   -0.2992    0.7053 C.ar      1 <0>        -0.0690
     25 S1         18.4599   -0.5771    0.9376 S.o2      1 <0>         2.6971
     26 O2         19.1825   -0.0457    2.0397 O.2       1 <0>        -0.9380
     27 O3         18.0919   -1.9473    0.8574 O.2       1 <0>        -0.9584
     28 N3         19.3529   -0.2469   -0.4173 N.pl3     1 <0>        -1.2440
     29 Cl1        18.5370    2.5517    0.9898 Cl        1 <0>        -0.0278
     30 O4          7.2539    1.0183   -1.2832 O.3       1 <0>        -0.5423
     31 H1         -0.9633    1.8759    0.0259 H         1 <0>         0.1295
     32 H2          1.1262    3.1695    0.0079 H         1 <0>         0.1277
     33 H3          3.2887    2.0480   -0.0187 H         1 <0>         0.1298
     34 H4         -0.9241   -0.5596    0.0082 H         1 <0>         0.1344
     35 H5          0.3810   -2.6672   -0.0149 H         1 <0>         0.1333
     36 H6          2.5405   -3.7919   -0.0406 H         1 <0>         0.1284
     37 H7          4.6324   -2.5056   -0.0537 H         1 <0>         0.1232
     38 H8          6.0900   -1.3125    0.8281 H         1 <0>         0.0831
     39 H9          6.0731   -1.3042   -0.9517 H         1 <0>         0.0787
     40 H10         7.1725    0.9542    0.7803 H         1 <0>         0.1364
     41 H11         8.4953   -1.1767    0.9272 H         1 <0>         0.1492
     42 H12         8.6571   -1.1583   -0.8453 H         1 <0>         0.1430
     43 H13         9.7232    0.9667   -0.6595 H         1 <0>         0.4369
     44 H14        10.8801   -1.0383    1.1463 H         1 <0>         0.1423
     45 H15        11.0419   -1.0199   -0.6262 H         1 <0>         0.1417
     46 H16        12.1588    1.1905   -0.5012 H         1 <0>         0.0850
     47 H17        11.9970    1.1720    1.2713 H         1 <0>         0.0849
     48 H18        13.3211   -1.1917    0.4738 H         1 <0>         0.4119
     49 H19        13.7152    2.3958    0.5567 H         1 <0>         0.1371
     50 H20        15.8792    3.5485    0.7671 H         1 <0>         0.1497
     51 H21        15.7217   -1.3785    0.6909 H         1 <0>         0.1561
     52 H22        19.0101    0.3658   -1.0866 H         1 <0>         0.4165
     53 H23        20.2187   -0.6662   -0.5417 H         1 <0>         0.4266
     54 H24         7.3175    0.4730   -2.0792 H         1 <0>         0.3915
     55 H25         9.5734    0.9496    0.9813 H         1 <0>         0.4340
@<TRIPOS>BOND
     1    1    6 ar
     2    1    2 ar
     3    1   31 1
     4    2    3 ar
     5    2   32 1
     6    3    4 ar
     7    3   33 1
     8    4   10 ar
     9    4    5 ar
    10    5    6 ar
    11    5    7 ar
    12    6   34 1
    13    7    8 ar
    14    7   35 1
    15    8    9 ar
    16    8   36 1
    17    9   10 ar
    18    9   37 1
    19   10   11 1
    20   11   12 1
    21   12   13 1
    22   12   38 1
    23   12   39 1
    24   13   14 1
    25   13   30 1
    26   13   40 1
    27   14   15 1
    28   14   41 1
    29   14   42 1
    30   15   16 1
    31   15   43 1
    32   15   55 1
    33   16   17 1
    34   16   44 1
    35   16   45 1
    36   17   18 1
    37   17   46 1
    38   17   47 1
    39   18   19 1
    40   18   48 1
    41   19   24 ar
    42   19   20 ar
    43   20   21 ar
    44   20   49 1
    45   21   22 ar
    46   21   50 1
    47   22   23 ar
    48   22   29 1
    49   23   24 ar
    50   23   25 1
    51   24   51 1
    52   25   26 2
    53   25   27 2
    54   25   28 1
    55   28   52 1
    56   28   53 1
    57   30   54 1
@<TRIPOS>MOLECULE
CHEMBL6913
   37    38     0     0     0
SMALL
USER_CHARGES

@<TRIPOS>ATOM
      1 C1          0.8277   -0.2841   -1.2453 C.3       1 <0>        -0.1833
      2 C2         -0.0718   -0.1444   -0.0155 C.3       1 <0>         0.0196
      3 C3         -1.3267   -0.9995   -0.2018 C.3       1 <0>        -0.1842
      4 N1          0.6563   -0.5966    1.1776 N.4       1 <0>        -0.5033
      5 C4         -0.1527   -0.3312    2.3747 C.3       1 <0>         0.0299
      6 H1         -1.1431   -0.7698    2.2530 H         1 <0>         0.1534
      7 C5         -0.2805    1.1819    2.5864 C.3       1 <0>        -0.1367
      8 C6         -1.3142    1.4290    3.6833 C.3       1 <0>        -0.0763
      9 C7         -0.9997    0.6032    4.9032 C.ar      1 <0>        -0.0836
     10 C8         -0.1587   -0.4871    4.8640 C.ar      1 <0>        -0.1255
     11 C9          0.0843   -1.2129    6.0229 C.ar      1 <0>        -0.0969
     12 C10        -0.5036   -0.8509    7.2177 C.ar      1 <0>        -0.1240
     13 C11        -1.3463    0.2476    7.2648 C.ar      1 <0>         0.1069
     14 C12        -1.5935    0.9733    6.1063 C.ar      1 <0>         0.0870
     15 O1         -2.4209    2.0518    6.1480 O.3       1 <0>        -0.4863
     16 O2         -1.9278    0.6138    8.4383 O.3       1 <0>        -0.4883
     17 C13         0.5298   -0.9343    3.6007 C.3       1 <0>         0.1419
     18 H2          1.5712   -0.6135    3.6264 H         1 <0>         0.0898
     19 O3          0.4787   -2.3598    3.5148 O.3       1 <0>        -0.5632
     20 H3          1.1861   -1.3109   -1.3186 H         1 <0>         0.0816
     21 H4          0.2600   -0.0326   -2.1411 H         1 <0>         0.1078
     22 H5          1.6779    0.3917   -1.1523 H         1 <0>         0.0827
     23 H6         -0.3587    0.8999    0.1080 H         1 <0>         0.1403
     24 H7         -1.0398   -2.0438   -0.3253 H         1 <0>         0.0837
     25 H8         -1.9676   -0.9000    0.6743 H         1 <0>         0.0797
     26 H9         -1.8669   -0.6639   -1.0871 H         1 <0>         0.1069
     27 H10         0.8367   -1.5868    1.1063 H         1 <0>         0.4336
     28 H11         0.6823    1.5928    2.8900 H         1 <0>         0.0972
     29 H12        -0.6071    1.6559    1.6608 H         1 <0>         0.1021
     30 H13        -1.3070    2.4852    3.9526 H         1 <0>         0.1077
     31 H14        -2.3032    1.1600    3.3124 H         1 <0>         0.0913
     32 H15         0.7403   -2.0701    5.9886 H         1 <0>         0.1321
     33 H16        -0.3072   -1.4218    8.1132 H         1 <0>         0.1444
     34 H17        -3.3498    1.8416    5.9803 H         1 <0>         0.3989
     35 H18        -1.4060    1.2413    8.9569 H         1 <0>         0.4030
     36 H19         0.8938   -2.8139    4.2608 H         1 <0>         0.4052
     37 H20         1.5315   -0.0993    1.2461 H         1 <0>         0.4250
@<TRIPOS>BOND
     1    1    2 1
     2    1   20 1
     3    1   21 1
     4    1   22 1
     5    2    3 1
     6    2    4 1
     7    2   23 1
     8    3   24 1
     9    3   25 1
    10    3   26 1
    11    4    5 1
    12    4   27 1
    13    4   37 1
    14    5    6 1
    15    5   17 1
    16    5    7 1
    17    7    8 1
    18    7   28 1
    19    7   29 1
    20    8    9 1
    21    8   30 1
    22    8   31 1
    23    9   14 ar
    24    9   10 ar
    25   10   11 ar
    26   10   17 1
    27   11   12 ar
    28   11   32 1
    29   12   13 ar
    30   12   33 1
    31   13   14 ar
    32   13   16 1
    33   14   15 1
    34   15   34 1
    35   16   35 1
    36   17   18 1
    37   17   19 1
    38   19   36 1
@<TRIPOS>MOLECULE
CHEMBL409827
   52    54     0     0     0
SMALL
USER_CHARGES

@<TRIPOS>ATOM
      1 C1         -0.4747    1.0835   -0.6559 C.ar      1 <0>        -0.0982
      2 C2          0.6810    1.8389   -0.5823 C.ar      1 <0>        -0.0984
      3 C3          1.9113    1.2146   -0.4988 C.ar      1 <0>        -0.1293
      4 C4          1.9870   -0.1657   -0.4893 C.ar      1 <0>        -0.0993
      5 C5          0.8311   -0.9220   -0.5629 C.ar      1 <0>        -0.0302
      6 C6         -0.4003   -0.2964   -0.6461 C.ar      1 <0>        -0.0925
      7 Cl1         0.9253   -2.6554   -0.5516 Cl        1 <0>        -0.0487
      8 C7          3.1704    2.0387   -0.4186 C.3       1 <0>         0.1366
      9 H1          2.9373    3.0187   -0.0023 H         1 <0>         0.1347
     10 C8          3.7598    2.2071   -1.8204 C.3       1 <0>        -0.0438
     11 N1          4.9873    3.0104   -1.7423 N.4       1 <0>        -0.5052
     12 C9          5.5532    3.1722   -3.0882 C.3       1 <0>        -0.0095
     13 C10         6.8315    4.0088   -3.0068 C.3       1 <0>        -0.0881
     14 C11         7.4121    4.1748   -4.3875 C.ar      1 <0>        -0.1641
     15 C12         8.3180    3.2484   -4.8709 C.ar      1 <0>        -0.0701
     16 C13         8.8523    3.3976   -6.1356 C.ar      1 <0>        -0.1621
     17 C14         8.4784    4.4796   -6.9226 C.ar      1 <0>         0.2180
     18 C15         7.5678    5.4081   -6.4340 C.ar      1 <0>        -0.1769
     19 C16         7.0335    5.2500   -5.1705 C.ar      1 <0>        -0.0709
     20 N2          9.0174    4.6340   -8.2024 N.pl3     1 <0>        -0.6798
     21 C17         9.3866    3.5159   -8.9403 C.ar      1 <0>         0.1441
     22 C18         8.7033    2.3141   -8.7695 C.ar      1 <0>        -0.1720
     23 C19         9.0637    1.2129   -9.4927 C.ar      1 <0>        -0.0593
     24 C20        10.1209    1.2932  -10.4066 C.ar      1 <0>        -0.1479
     25 C21        10.8050    2.5027  -10.5758 C.ar      1 <0>        -0.0556
     26 C22        10.4355    3.6011   -9.8530 C.ar      1 <0>        -0.1689
     27 C23        10.5125    0.1091  -11.1872 C.2       1 <0>         0.5174
     28 O1          9.9139   -0.9475  -11.0378 O.co2     1 <0>        -0.6881
     29 O2         11.4368    0.1809  -11.9856 O.co2     1 <0>        -0.6843
     30 O3          4.1195    1.3779    0.4209 O.3       1 <0>        -0.5473
     31 H2         -1.4360    1.5720   -0.7167 H         1 <0>         0.1420
     32 H3          0.6224    2.9173   -0.5905 H         1 <0>         0.1349
     33 H4          2.9484   -0.6535   -0.4247 H         1 <0>         0.1340
     34 H5         -1.3031   -0.8863   -0.7036 H         1 <0>         0.1424
     35 H6          3.9929    1.2271   -2.2368 H         1 <0>         0.1378
     36 H7          3.0359    2.7111   -2.4608 H         1 <0>         0.1454
     37 H8          4.7715    3.9176   -1.3569 H         1 <0>         0.4277
     38 H9          5.7862    2.1921   -3.5045 H         1 <0>         0.1337
     39 H10         4.8293    3.6761   -3.7286 H         1 <0>         0.1329
     40 H11         6.5985    4.9889   -2.5905 H         1 <0>         0.0903
     41 H12         7.5554    3.5049   -2.3664 H         1 <0>         0.0914
     42 H13         8.6082    2.4074   -4.2585 H         1 <0>         0.1230
     43 H14         9.5602    2.6742   -6.5122 H         1 <0>         0.1349
     44 H15         7.2750    6.2505   -7.0433 H         1 <0>         0.1264
     45 H16         6.3224    5.9692   -4.7916 H         1 <0>         0.1210
     46 H17         9.1338    5.5216   -8.5758 H         1 <0>         0.4091
     47 H18         7.8877    2.2529   -8.0642 H         1 <0>         0.1129
     48 H19         8.5339    0.2813   -9.3593 H         1 <0>         0.1291
     49 H20        11.6212    2.5684  -11.2800 H         1 <0>         0.1323
     50 H21        10.9600    4.5358   -9.9861 H         1 <0>         0.1174
     51 H22         4.3736    0.4980    0.1106 H         1 <0>         0.3898
     52 H23         5.6574    2.5439   -1.1495 H         1 <0>         0.4314
@<TRIPOS>BOND
     1    1    6 ar
     2    1    2 ar
     3    1   31 1
     4    2    3 ar
     5    2   32 1
     6    3    4 ar
     7    3    8 1
     8    4    5 ar
     9    4   33 1
    10    5    6 ar
    11    5    7 1
    12    6   34 1
    13    8    9 1
    14    8   10 1
    15    8   30 1
    16   10   11 1
    17   10   35 1
    18   10   36 1
    19   11   12 1
    20   11   37 1
    21   11   52 1
    22   12   13 1
    23   12   38 1
    24   12   39 1
    25   13   14 1
    26   13   40 1
    27   13   41 1
    28   14   19 ar
    29   14   15 ar
    30   15   16 ar
    31   15   42 1
    32   16   17 ar
    33   16   43 1
    34   17   18 ar
    35   17   20 1
    36   18   19 ar
    37   18   44 1
    38   19   45 1
    39   20   21 1
    40   20   46 1
    41   21   26 ar
    42   21   22 ar
    43   22   23 ar
    44   22   47 1
    45   23   24 ar
    46   23   48 1
    47   24   25 ar
    48   24   27 1
    49   25   26 ar
    50   25   49 1
    51   26   50 1
    52   27   28 2
    53   27   29 1
    54   30   51 1
@<TRIPOS>MOLECULE
CHEMBL288624
   44    47     0     0     0
SMALL
USER_CHARGES

@<TRIPOS>ATOM
      1 C1         -0.0416    1.2222   -1.3269 C.ar      1 <0>        -0.0983
      2 C2          1.1237    1.9745   -1.3021 C.ar      1 <0>        -0.1184
      3 C3          2.3422    1.3317   -1.1804 C.ar      1 <0>        -0.0540
      4 C4          2.3798   -0.0368   -1.0863 C.ar      1 <0>        -0.1637
      5 C5          1.2140   -0.8354   -1.1081 C.ar      1 <0>         0.1280
      6 C6         -0.0134   -0.1449   -1.2336 C.ar      1 <0>        -0.0861
      7 N1          1.4149   -2.1677   -1.0063 N.2       1 <0>        -0.5837
      8 C7          2.6135   -2.6936   -0.8941 C.2       1 <0>         0.4184
      9 S1          3.6672   -1.2503   -0.9226 S.3       1 <0>        -0.0236
     10 N2          2.9686   -4.0225   -0.7826 N.pl3     1 <0>        -0.6658
     11 C8          4.3804   -4.3962   -0.6668 C.3       1 <0>         0.0939
     12 C9          4.4979   -5.9177   -0.5578 C.3       1 <0>         0.1048
     13 C10         5.9588   -6.3001   -0.3120 C.3       1 <0>         0.0453
     14 O1          6.0522   -7.7093   -0.0944 O.3       1 <0>        -0.2178
     15 N3          7.3701   -8.1692    0.1441 N.2       1 <0>        -0.3424
     16 C11         7.5856   -9.4129    0.3535 C.2       1 <0>         0.2032
     17 C12         8.9984   -9.9221    0.4791 C.3       1 <0>        -0.1115
     18 C13         9.8337   -9.4060    1.6525 C.3       1 <0>        -0.1575
     19 C14        10.1330   -8.9261    0.2309 C.3       1 <0>        -0.1611
     20 C15         6.4267  -10.3686    0.4744 C.3       1 <0>        -0.1576
     21 C16         5.2622   -9.9561    1.3770 C.3       1 <0>        -0.1523
     22 C17         6.2208  -11.0622    1.8226 C.3       1 <0>        -0.1633
     23 O2          4.0462   -6.5187   -1.7730 O.3       1 <0>        -0.5451
     24 H1         -0.9928    1.7255   -1.4174 H         1 <0>         0.1324
     25 H2          1.0799    3.0510   -1.3774 H         1 <0>         0.1366
     26 H3          3.2584    1.9031   -1.1599 H         1 <0>         0.1308
     27 H4         -0.9390   -0.7009   -1.2561 H         1 <0>         0.1305
     28 H5          2.2834   -4.7091   -0.7809 H         1 <0>         0.4238
     29 H6          4.9207   -4.0523   -1.5488 H         1 <0>         0.0812
     30 H7          4.8067   -3.9341    0.2236 H         1 <0>         0.0865
     31 H8          3.8854   -6.2709    0.2718 H         1 <0>         0.1193
     32 H9          6.5572   -6.0262   -1.1810 H         1 <0>         0.0649
     33 H10         6.3300   -5.7715    0.5660 H         1 <0>         0.0688
     34 H11         9.1562  -10.9535    0.1638 H         1 <0>         0.1321
     35 H12         9.3613   -8.6982    2.3336 H         1 <0>         0.0961
     36 H13        10.5411  -10.0979    2.1096 H         1 <0>         0.1048
     37 H14        11.0374   -9.3024   -0.2473 H         1 <0>         0.1023
     38 H15         9.8576   -7.9026   -0.0233 H         1 <0>         0.1048
     39 H16         6.1899  -10.9367   -0.4252 H         1 <0>         0.1222
     40 H17         5.3343   -8.9935    1.8833 H         1 <0>         0.0935
     41 H18         4.2589  -10.2527    1.0711 H         1 <0>         0.0996
     42 H19         5.8481  -12.0864    1.8099 H         1 <0>         0.1012
     43 H20         6.9235  -10.8273    2.6220 H         1 <0>         0.0972
     44 H21         4.5471   -6.2491   -2.5550 H         1 <0>         0.3800
@<TRIPOS>BOND
     1    1    6 ar
     2    1    2 ar
     3    1   24 1
     4    2    3 ar
     5    2   25 1
     6    3    4 ar
     7    3   26 1
     8    4    9 1
     9    4    5 ar
    10    5    6 ar
    11    5    7 1
    12    6   27 1
    13    7    8 2
    14    8    9 1
    15    8   10 1
    16   10   11 1
    17   10   28 1
    18   11   12 1
    19   11   29 1
    20   11   30 1
    21   12   13 1
    22   12   23 1
    23   12   31 1
    24   13   14 1
    25   13   32 1
    26   13   33 1
    27   14   15 1
    28   15   16 2
    29   16   17 1
    30   16   20 1
    31   17   19 1
    32   17   18 1
    33   17   34 1
    34   18   19 1
    35   18   35 1
    36   18   36 1
    37   19   37 1
    38   19   38 1
    39   20   22 1
    40   20   21 1
    41   20   39 1
    42   21   22 1
    43   21   40 1
    44   21   41 1
    45   22   42 1
    46   22   43 1
    47   23   44 1
@<TRIPOS>MOLECULE
CHEMBL288624__1
   44    47     0     0     0
SMALL
USER_CHARGES

@<TRIPOS>ATOM
      1 C1          0.0050    1.3429   -1.3335 C.ar      1 <0>        -0.0983
      2 C2          1.1770    2.0846   -1.3062 C.ar      1 <0>        -0.1184
      3 C3          2.3895    1.4307   -1.1833 C.ar      1 <0>        -0.0540
      4 C4          2.4145    0.0618   -1.0905 C.ar      1 <0>        -0.1637
      5 C5          1.2416   -0.7262   -1.1148 C.ar      1 <0>         0.1280
      6 C6          0.0206   -0.0245   -1.2415 C.ar      1 <0>        -0.0861
      7 N1          1.4303   -2.0604   -1.0139 N.2       1 <0>        -0.5838
      8 C7          2.6238   -2.5972   -0.9004 C.2       1 <0>         0.4186
      9 S1          3.6906   -1.1635   -0.9259 S.3       1 <0>        -0.0240
     10 N2          2.9667   -3.9293   -0.7896 N.pl3     1 <0>        -0.6654
     11 C8          4.3749   -4.3159   -0.6721 C.3       1 <0>         0.0936
     12 C9          4.4785   -5.8386   -0.5643 C.3       1 <0>         0.1048
     13 C10         5.9491   -6.2423   -0.4415 C.3       1 <0>         0.0455
     14 O1          6.0549   -7.6673   -0.4580 O.3       1 <0>        -0.2180
     15 N3          7.3825   -8.1476   -0.3493 N.2       1 <0>        -0.3425
     16 C11         7.6095   -9.4068   -0.3520 C.2       1 <0>         0.2033
     17 C12         9.0275   -9.9168   -0.3663 C.3       1 <0>        -0.1115
     18 C13         9.9084   -9.5889    0.8410 C.3       1 <0>        -0.1574
     19 C14        10.1486   -8.8836   -0.4953 C.3       1 <0>        -0.1612
     20 C15         6.4589  -10.3799   -0.3410 C.3       1 <0>        -0.1599
     21 C16         5.3309  -10.1288    0.6617 C.3       1 <0>        -0.1484
     22 C17         6.3096  -11.2836    0.8846 C.3       1 <0>        -0.1642
     23 O2          3.7642   -6.2841    0.5904 O.3       1 <0>        -0.5450
     24 H1         -0.9415    1.8549   -1.4250 H         1 <0>         0.1324
     25 H2          1.1430    3.1615   -1.3805 H         1 <0>         0.1366
     26 H3          3.3108    1.9938   -1.1608 H         1 <0>         0.1308
     27 H4         -0.9099   -0.5721   -1.2660 H         1 <0>         0.1305
     28 H5          2.2754   -4.6097   -0.7896 H         1 <0>         0.4243
     29 H6          4.9197   -3.9761   -1.5529 H         1 <0>         0.0870
     30 H7          4.8040   -3.8585    0.2194 H         1 <0>         0.0804
     31 H8          4.0494   -6.2959   -1.4558 H         1 <0>         0.1199
     32 H9          6.5111   -5.8266   -1.2779 H         1 <0>         0.0701
     33 H10         6.3542   -5.8587    0.4949 H         1 <0>         0.0633
     34 H11         9.1750  -10.8824   -0.8499 H         1 <0>         0.1320
     35 H12         9.4622   -9.0044    1.6456 H         1 <0>         0.0960
     36 H13        10.6355  -10.3391    1.1520 H         1 <0>         0.1048
     37 H14        11.0338   -9.1696   -1.0634 H         1 <0>         0.1023
     38 H15         9.8605   -7.8350   -0.5698 H         1 <0>         0.1049
     39 H16         6.1872  -10.7977   -1.3104 H         1 <0>         0.1213
     40 H17         5.4210   -9.2598    1.3134 H         1 <0>         0.0958
     41 H18         4.3167  -10.3813    0.3520 H         1 <0>         0.0990
     42 H19         5.9393  -12.2957    0.7215 H         1 <0>         0.1007
     43 H20         7.0436  -11.1742    1.6829 H         1 <0>         0.0968
     44 H21         4.0926   -5.9161    1.4222 H         1 <0>         0.3793
@<TRIPOS>BOND
     1    1    6 ar
     2    1    2 ar
     3    1   24 1
     4    2    3 ar
     5    2   25 1
     6    3    4 ar
     7    3   26 1
     8    4    9 1
     9    4    5 ar
    10    5    6 ar
    11    5    7 1
    12    6   27 1
    13    7    8 2
    14    8    9 1
    15    8   10 1
    16   10   11 1
    17   10   28 1
    18   11   12 1
    19   11   29 1
    20   11   30 1
    21   12   13 1
    22   12   23 1
    23   12   31 1
    24   13   14 1
    25   13   32 1
    26   13   33 1
    27   14   15 1
    28   15   16 2
    29   16   17 1
    30   16   20 1
    31   17   19 1
    32   17   18 1
    33   17   34 1
    34   18   19 1
    35   18   35 1
    36   18   36 1
    37   19   37 1
    38   19   38 1
    39   20   22 1
    40   20   21 1
    41   20   39 1
    42   21   22 1
    43   21   40 1
    44   21   41 1
    45   22   42 1
    46   22   43 1
    47   23   44 1
@<TRIPOS>MOLECULE
CHEMBL424167
   74    78     0     0     0
SMALL
USER_CHARGES

@<TRIPOS>ATOM
      1 C1         -0.0226    1.1057   -0.2372 C.ar      1 <0>        -0.0553
      2 C2          1.1374    1.8576   -0.2283 C.ar      1 <0>        -0.1319
      3 C3          2.3676    1.2297   -0.1722 C.ar      1 <0>        -0.0131
      4 C4          2.4379   -0.1500   -0.1245 C.ar      1 <0>        -0.6774
      5 C5          1.2779   -0.9019   -0.1325 C.ar      1 <0>        -0.0254
      6 C6          0.0477   -0.2740   -0.1901 C.ar      1 <0>        -0.1425
      7 S1          4.0061   -0.9504   -0.0541 S.o2      1 <0>         2.6883
      8 O1          3.8161   -2.2618   -0.5674 O.2       1 <0>        -0.9492
      9 O2          4.9497   -0.0444   -0.6091 O.2       1 <0>        -0.9345
     10 N1          4.3976   -1.1204    1.5459 N.pl3     1 <0>        -1.0494
     11 C7          3.5707   -1.8670    2.3932 C.ar      1 <0>         0.1428
     12 C8          2.9251   -2.9981    1.9155 C.ar      1 <0>        -0.1464
     13 C9          2.1094   -3.7339    2.7543 C.ar      1 <0>        -0.1203
     14 C10         1.9347   -3.3456    4.0697 C.ar      1 <0>        -0.1030
     15 C11         2.5751   -2.2192    4.5529 C.ar      1 <0>        -0.1128
     16 C12         3.3983   -1.4794    3.7202 C.ar      1 <0>         0.1124
     17 O3          4.0329   -0.3742    4.1956 O.3       1 <0>        -0.4873
     18 C13         1.4084   -4.9622    2.2338 C.3       1 <0>         0.1354
     19 H1          1.9642   -5.3667    1.3879 H         1 <0>         0.1378
     20 C14        -0.0058   -4.5900    1.7838 C.3       1 <0>        -0.0499
     21 N2         -0.6892   -5.7873    1.2763 N.4       1 <0>        -0.5039
     22 C15        -2.0470   -5.4300    0.8443 C.3       1 <0>         0.0263
     23 C16        -2.8652   -4.9778    2.0560 C.3       1 <0>        -0.1595
     24 C17        -4.2695   -4.5732    1.5967 C.3       1 <0>         0.1264
     25 N3         -4.8634   -5.6909    0.8506 N.pl3     1 <0>        -0.6360
     26 C18        -4.1172   -6.2622   -0.2788 C.3       1 <0>         0.1252
     27 C19        -2.7146   -6.6479    0.2016 C.3       1 <0>        -0.1595
     28 C20        -6.1134   -6.2011    1.2085 C.ar      1 <0>         0.2107
     29 C21        -6.8646   -5.5744    2.1948 C.ar      1 <0>        -0.1918
     30 C22        -8.1004   -6.0812    2.5459 C.ar      1 <0>        -0.0586
     31 C23        -8.5900   -7.2114    1.9173 C.ar      1 <0>        -0.1398
     32 C24        -7.8448   -7.8377    0.9351 C.ar      1 <0>        -0.0502
     33 C25        -6.6107   -7.3329    0.5751 C.ar      1 <0>        -0.1898
     34 C26        -9.9385   -7.7621    2.3038 C.3       1 <0>        -0.0512
     35 C27       -11.0202   -7.1202    1.4327 C.3       1 <0>        -0.0702
     36 C28       -12.3934   -7.7033    1.7354 C.2       1 <0>         0.5288
     37 O4        -12.9161   -7.5989    2.8244 O.2       1 <0>        -0.4559
     38 N4        -12.9770   -8.3311    0.7285 N.am      1 <0>        -0.6898
     39 C29       -12.4185   -8.4603   -0.4892 C.2       1 <0>         0.5624
     40 O5        -12.8762   -9.0158   -1.4690 O.2       1 <0>        -0.4129
     41 S2        -10.8474   -7.6240   -0.3299 S.3       1 <0>        -0.1487
     42 O6          1.3357   -5.9441    3.2694 O.3       1 <0>        -0.5434
     43 H2         -0.9838    1.5964   -0.2766 H         1 <0>         0.1361
     44 H3          1.0825    2.9356   -0.2656 H         1 <0>         0.1402
     45 H4          3.2739    1.8171   -0.1659 H         1 <0>         0.1451
     46 H5          1.3328   -1.9798   -0.0956 H         1 <0>         0.1310
     47 H6         -0.8585   -0.8614   -0.1967 H         1 <0>         0.1305
     48 H7          5.2000   -0.7027    1.8959 H         1 <0>         0.4378
     49 H8          3.0596   -3.3034    0.8883 H         1 <0>         0.1697
     50 H9          1.2962   -3.9233    4.7215 H         1 <0>         0.1314
     51 H10         2.4365   -1.9186    5.5809 H         1 <0>         0.1447
     52 H11         3.5255    0.4432    4.0979 H         1 <0>         0.3986
     53 H12        -0.5616   -4.1855    2.6297 H         1 <0>         0.1400
     54 H13         0.0496   -3.8410    0.9938 H         1 <0>         0.1441
     55 H14        -0.1747   -6.1617    0.4933 H         1 <0>         0.4312
     56 H15        -1.9953   -4.6188    0.1181 H         1 <0>         0.1409
     57 H16        -2.9384   -5.7967    2.7717 H         1 <0>         0.0940
     58 H17        -2.3766   -4.1248    2.5271 H         1 <0>         0.0964
     59 H18        -4.8866   -4.3450    2.4657 H         1 <0>         0.1035
     60 H19        -4.2047   -3.6968    0.9517 H         1 <0>         0.0734
     61 H20        -4.6338   -7.1485   -0.6472 H         1 <0>         0.1055
     62 H21        -4.0399   -5.5236   -1.0767 H         1 <0>         0.0750
     63 H22        -2.1189   -6.9836   -0.6472 H         1 <0>         0.1006
     64 H23        -2.7892   -7.4510    0.9347 H         1 <0>         0.0938
     65 H24        -6.4825   -4.6921    2.6866 H         1 <0>         0.1232
     66 H25        -8.6849   -5.5944    3.3126 H         1 <0>         0.1277
     67 H26        -8.2301   -8.7202    0.4461 H         1 <0>         0.1308
     68 H27        -6.0312   -7.8199   -0.1953 H         1 <0>         0.1244
     69 H28        -9.9460   -8.8419    2.1557 H         1 <0>         0.0894
     70 H29       -10.1356   -7.5378    3.3521 H         1 <0>         0.1051
     71 H30       -11.0173   -6.0353    1.5373 H         1 <0>         0.1598
     72 H31       -13.8538   -8.7193    0.8754 H         1 <0>         0.4202
     73 H32         0.8538   -5.6520    4.0553 H         1 <0>         0.3877
     74 H33        -0.7405   -6.4806    2.0076 H         1 <0>         0.4311
@<TRIPOS>BOND
     1    1    6 ar
     2    1    2 ar
     3    1   43 1
     4    2    3 ar
     5    2   44 1
     6    3    4 ar
     7    3   45 1
     8    4    5 ar
     9    4    7 1
    10    5    6 ar
    11    5   46 1
    12    6   47 1
    13    7    8 2
    14    7    9 2
    15    7   10 1
    16   10   11 1
    17   10   48 1
    18   11   16 ar
    19   11   12 ar
    20   12   13 ar
    21   12   49 1
    22   13   14 ar
    23   13   18 1
    24   14   15 ar
    25   14   50 1
    26   15   16 ar
    27   15   51 1
    28   16   17 1
    29   17   52 1
    30   18   19 1
    31   18   20 1
    32   18   42 1
    33   20   21 1
    34   20   53 1
    35   20   54 1
    36   21   22 1
    37   21   55 1
    38   21   74 1
    39   22   27 1
    40   22   23 1
    41   22   56 1
    42   23   24 1
    43   23   57 1
    44   23   58 1
    45   24   25 1
    46   24   59 1
    47   24   60 1
    48   25   26 1
    49   25   28 1
    50   26   27 1
    51   26   61 1
    52   26   62 1
    53   27   63 1
    54   27   64 1
    55   28   33 ar
    56   28   29 ar
    57   29   30 ar
    58   29   65 1
    59   30   31 ar
    60   30   66 1
    61   31   32 ar
    62   31   34 1
    63   32   33 ar
    64   32   67 1
    65   33   68 1
    66   34   35 1
    67   34   69 1
    68   34   70 1
    69   35   41 1
    70   35   36 1
    71   35   71 1
    72   36   37 2
    73   36   38 am
    74   38   39 am
    75   38   72 1
    76   39   40 2
    77   39   41 1
    78   42   73 1
@<TRIPOS>MOLECULE
CHEMBL424167__1
   73    77     0     0     0
SMALL
USER_CHARGES

@<TRIPOS>ATOM
      1 C1         -0.0226    1.1057   -0.2372 C.ar      1 <0>        -0.0664
      2 C2          1.1374    1.8576   -0.2283 C.ar      1 <0>        -0.1383
      3 C3          2.3676    1.2297   -0.1722 C.ar      1 <0>        -0.0123
      4 C4          2.4379   -0.1500   -0.1245 C.ar      1 <0>        -0.6639
      5 C5          1.2779   -0.9019   -0.1325 C.ar      1 <0>        -0.0172
      6 C6          0.0477   -0.2740   -0.1901 C.ar      1 <0>        -0.1480
      7 S1          4.0061   -0.9504   -0.0541 S.o2      1 <0>         2.6865
      8 O1          3.8161   -2.2618   -0.5674 O.2       1 <0>        -0.9649
      9 O2          4.9497   -0.0444   -0.6091 O.2       1 <0>        -0.9648
     10 N1          4.3976   -1.1204    1.5459 N.pl3     1 <0>        -1.0221
     11 C7          3.5707   -1.8670    2.3932 C.ar      1 <0>         0.0012
     12 C8          2.9251   -2.9981    1.9155 C.ar      1 <0>        -0.1001
     13 C9          2.1094   -3.7339    2.7543 C.ar      1 <0>        -0.2767
     14 C10         1.9347   -3.3456    4.0697 C.ar      1 <0>        -0.0558
     15 C11         2.5751   -2.2192    4.5529 C.ar      1 <0>        -0.2503
     16 C12         3.3983   -1.4794    3.7202 C.ar      1 <0>         0.2808
     17 O3          4.0329   -0.3742    4.1956 O.3       1 <0>        -0.6939
     18 C13         1.4084   -4.9622    2.2338 C.3       1 <0>         0.1617
     19 H1          1.9642   -5.3667    1.3879 H         1 <0>         0.1167
     20 C14        -0.0058   -4.5900    1.7838 C.3       1 <0>        -0.0497
     21 N2         -0.6892   -5.7873    1.2763 N.4       1 <0>        -0.5043
     22 C15        -2.0470   -5.4300    0.8443 C.3       1 <0>         0.0262
     23 C16        -2.8652   -4.9778    2.0560 C.3       1 <0>        -0.1598
     24 C17        -4.2695   -4.5732    1.5967 C.3       1 <0>         0.1259
     25 N3         -4.8634   -5.6909    0.8506 N.pl3     1 <0>        -0.6345
     26 C18        -4.1172   -6.2622   -0.2788 C.3       1 <0>         0.1254
     27 C19        -2.7146   -6.6479    0.2016 C.3       1 <0>        -0.1588
     28 C20        -6.1134   -6.2011    1.2085 C.ar      1 <0>         0.2164
     29 C21        -6.8646   -5.5744    2.1948 C.ar      1 <0>        -0.1930
     30 C22        -8.1004   -6.0812    2.5459 C.ar      1 <0>        -0.0578
     31 C23        -8.5900   -7.2114    1.9173 C.ar      1 <0>        -0.1464
     32 C24        -7.8448   -7.8377    0.9351 C.ar      1 <0>        -0.0505
     33 C25        -6.6107   -7.3329    0.5751 C.ar      1 <0>        -0.1925
     34 C26        -9.9385   -7.7621    2.3038 C.3       1 <0>        -0.0491
     35 C27       -11.0202   -7.1202    1.4327 C.3       1 <0>        -0.0702
     36 C28       -12.3934   -7.7033    1.7354 C.2       1 <0>         0.5290
     37 O4        -12.9161   -7.5989    2.8244 O.2       1 <0>        -0.4571
     38 N4        -12.9770   -8.3311    0.7285 N.am      1 <0>        -0.6902
     39 C29       -12.4185   -8.4603   -0.4892 C.2       1 <0>         0.5610
     40 O5        -12.8762   -9.0158   -1.4690 O.2       1 <0>        -0.4160
     41 S2        -10.8474   -7.6240   -0.3299 S.3       1 <0>        -0.1445
     42 O6          1.3357   -5.9441    3.2694 O.3       1 <0>        -0.5586
     43 H2         -0.9839    1.5964   -0.2766 H         1 <0>         0.1287
     44 H3          1.0825    2.9356   -0.2656 H         1 <0>         0.1334
     45 H4          3.2739    1.8171   -0.1659 H         1 <0>         0.1406
     46 H5          1.3328   -1.9798   -0.0956 H         1 <0>         0.1312
     47 H6         -0.8585   -0.8614   -0.1967 H         1 <0>         0.1245
     48 H7          5.2000   -0.7027    1.8959 H         1 <0>         0.4263
     49 H8          3.0596   -3.3034    0.8883 H         1 <0>         0.1366
     50 H9          1.2962   -3.9233    4.7215 H         1 <0>         0.0921
     51 H10         2.4365   -1.9186    5.5809 H         1 <0>         0.1057
     52 H11        -0.5616   -4.1855    2.6297 H         1 <0>         0.1336
     53 H12         0.0496   -3.8410    0.9938 H         1 <0>         0.1381
     54 H13        -0.1747   -6.1617    0.4933 H         1 <0>         0.4270
     55 H14        -1.9953   -4.6188    0.1181 H         1 <0>         0.1386
     56 H15        -2.9384   -5.7967    2.7717 H         1 <0>         0.0918
     57 H16        -2.3766   -4.1248    2.5271 H         1 <0>         0.1010
     58 H17        -4.8866   -4.3450    2.4657 H         1 <0>         0.1020
     59 H18        -4.2047   -3.6968    0.9517 H         1 <0>         0.0744
     60 H19        -4.6338   -7.1485   -0.6472 H         1 <0>         0.1025
     61 H20        -4.0399   -5.5236   -1.0767 H         1 <0>         0.0746
     62 H21        -2.1189   -6.9836   -0.6472 H         1 <0>         0.0988
     63 H22        -2.7892   -7.4510    0.9347 H         1 <0>         0.0916
     64 H23        -6.4825   -4.6921    2.6866 H         1 <0>         0.1245
     65 H24        -8.6849   -5.5944    3.3126 H         1 <0>         0.1265
     66 H25        -8.2301   -8.7202    0.4461 H         1 <0>         0.1289
     67 H26        -6.0312   -7.8199   -0.1953 H         1 <0>         0.1243
     68 H27        -9.9460   -8.8419    2.1557 H         1 <0>         0.0881
     69 H28       -10.1356   -7.5378    3.3521 H         1 <0>         0.1042
     70 H29       -11.0173   -6.0353    1.5373 H         1 <0>         0.1602
     71 H30       -13.8538   -8.7193    0.8754 H         1 <0>         0.4188
     72 H31         0.8538   -5.6520    4.0553 H         1 <0>         0.3810
     73 H32        -0.7405   -6.4806    2.0076 H         1 <0>         0.4270
@<TRIPOS>BOND
     1    1    6 ar
     2    1    2 ar
     3    1   43 1
     4    2    3 ar
     5    2   44 1
     6    3    4 ar
     7    3   45 1
     8    4    5 ar
     9    4    7 1
    10    5    6 ar
    11    5   46 1
    12    6   47 1
    13    7    8 2
    14    7    9 2
    15    7   10 1
    16   10   11 1
    17   10   48 1
    18   11   16 ar
    19   11   12 ar
    20   12   13 ar
    21   12   49 1
    22   13   14 ar
    23   13   18 1
    24   14   15 ar
    25   14   50 1
    26   15   16 ar
    27   15   51 1
    28   16   17 1
    29   18   19 1
    30   18   20 1
    31   18   42 1
    32   20   21 1
    33   20   52 1
    34   20   53 1
    35   21   22 1
    36   21   54 1
    37   21   73 1
    38   22   27 1
    39   22   23 1
    40   22   55 1
    41   23   24 1
    42   23   56 1
    43   23   57 1
    44   24   25 1
    45   24   58 1
    46   24   59 1
    47   25   26 1
    48   25   28 1
    49   26   27 1
    50   26   60 1
    51   26   61 1
    52   27   62 1
    53   27   63 1
    54   28   33 ar
    55   28   29 ar
    56   29   30 ar
    57   29   64 1
    58   30   31 ar
    59   30   65 1
    60   31   32 ar
    61   31   34 1
    62   32   33 ar
    63   32   66 1
    64   33   67 1
    65   34   35 1
    66   34   68 1
    67   34   69 1
    68   35   41 1
    69   35   36 1
    70   35   70 1
    71   36   37 2
    72   36   38 am
    73   38   39 am
    74   38   71 1
    75   39   40 2
    76   39   41 1
    77   42   72 1
@<TRIPOS>MOLECULE
CHEMBL424167__2
   74    78     0     0     0
SMALL
USER_CHARGES

@<TRIPOS>ATOM
      1 C1         -0.0226    1.1057   -0.2372 C.ar      1 <0>        -0.0552
      2 C2          1.1374    1.8576   -0.2283 C.ar      1 <0>        -0.1319
      3 C3          2.3676    1.2297   -0.1722 C.ar      1 <0>        -0.0132
      4 C4          2.4379   -0.1500   -0.1245 C.ar      1 <0>        -0.6775
      5 C5          1.2779   -0.9019   -0.1325 C.ar      1 <0>        -0.0254
      6 C6          0.0477   -0.2740   -0.1901 C.ar      1 <0>        -0.1425
      7 S1          4.0061   -0.9504   -0.0541 S.o2      1 <0>         2.6884
      8 O1          3.8161   -2.2618   -0.5674 O.2       1 <0>        -0.9493
      9 O2          4.9497   -0.0444   -0.6091 O.2       1 <0>        -0.9345
     10 N1          4.3976   -1.1204    1.5459 N.pl3     1 <0>        -1.0494
     11 C7          3.5707   -1.8670    2.3932 C.ar      1 <0>         0.1427
     12 C8          2.9251   -2.9981    1.9155 C.ar      1 <0>        -0.1464
     13 C9          2.1094   -3.7339    2.7543 C.ar      1 <0>        -0.1204
     14 C10         1.9347   -3.3456    4.0697 C.ar      1 <0>        -0.1029
     15 C11         2.5751   -2.2192    4.5529 C.ar      1 <0>        -0.1127
     16 C12         3.3983   -1.4794    3.7202 C.ar      1 <0>         0.1125
     17 O3          4.0329   -0.3742    4.1956 O.3       1 <0>        -0.4873
     18 C13         1.4084   -4.9622    2.2338 C.3       1 <0>         0.1355
     19 H1          1.9642   -5.3667    1.3879 H         1 <0>         0.1378
     20 C14        -0.0058   -4.5900    1.7838 C.3       1 <0>        -0.0499
     21 N2         -0.6892   -5.7873    1.2763 N.4       1 <0>        -0.5038
     22 C15        -2.0470   -5.4300    0.8443 C.3       1 <0>         0.0263
     23 C16        -2.8652   -4.9778    2.0560 C.3       1 <0>        -0.1596
     24 C17        -4.2695   -4.5732    1.5967 C.3       1 <0>         0.1261
     25 N3         -4.8634   -5.6909    0.8506 N.pl3     1 <0>        -0.6360
     26 C18        -4.1172   -6.2622   -0.2788 C.3       1 <0>         0.1254
     27 C19        -2.7146   -6.6479    0.2016 C.3       1 <0>        -0.1594
     28 C20        -6.1134   -6.2011    1.2085 C.ar      1 <0>         0.2108
     29 C21        -6.8646   -5.5744    2.1948 C.ar      1 <0>        -0.1899
     30 C22        -8.1004   -6.0812    2.5459 C.ar      1 <0>        -0.0505
     31 C23        -8.5900   -7.2114    1.9173 C.ar      1 <0>        -0.1399
     32 C24        -7.8448   -7.8377    0.9351 C.ar      1 <0>        -0.0583
     33 C25        -6.6107   -7.3329    0.5751 C.ar      1 <0>        -0.1917
     34 C26        -9.9385   -7.7621    2.3038 C.3       1 <0>        -0.0511
     35 C27       -11.0202   -7.1202    1.4327 C.3       1 <0>        -0.0700
     36 C28       -12.4099   -7.5898    1.8395 C.2       1 <0>         0.5288
     37 O4        -12.7482   -8.7518    1.7675 O.2       1 <0>        -0.4556
     38 N4        -13.2225   -6.6429    2.2773 N.am      1 <0>        -0.6899
     39 C29       -12.8712   -5.3467    2.3671 C.2       1 <0>         0.5624
     40 O5        -13.5454   -4.4123    2.7550 O.2       1 <0>        -0.4133
     41 S2        -11.1824   -5.3199    1.7838 S.3       1 <0>        -0.1489
     42 O6          1.3357   -5.9441    3.2694 O.3       1 <0>        -0.5435
     43 H2         -0.9838    1.5964   -0.2766 H         1 <0>         0.1361
     44 H3          1.0825    2.9356   -0.2656 H         1 <0>         0.1403
     45 H4          3.2739    1.8171   -0.1659 H         1 <0>         0.1450
     46 H5          1.3328   -1.9798   -0.0956 H         1 <0>         0.1309
     47 H6         -0.8585   -0.8614   -0.1967 H         1 <0>         0.1305
     48 H7          5.2000   -0.7027    1.8959 H         1 <0>         0.4378
     49 H8          3.0596   -3.3034    0.8883 H         1 <0>         0.1697
     50 H9          1.2962   -3.9233    4.7215 H         1 <0>         0.1314
     51 H10         2.4365   -1.9186    5.5809 H         1 <0>         0.1447
     52 H11         3.5255    0.4432    4.0979 H         1 <0>         0.3986
     53 H12        -0.5616   -4.1855    2.6297 H         1 <0>         0.1401
     54 H13         0.0496   -3.8410    0.9938 H         1 <0>         0.1441
     55 H14        -0.1747   -6.1617    0.4933 H         1 <0>         0.4311
     56 H15        -1.9953   -4.6188    0.1181 H         1 <0>         0.1410
     57 H16        -2.9384   -5.7967    2.7717 H         1 <0>         0.0940
     58 H17        -2.3766   -4.1248    2.5271 H         1 <0>         0.0965
     59 H18        -4.8866   -4.3450    2.4657 H         1 <0>         0.1039
     60 H19        -4.2047   -3.6968    0.9517 H         1 <0>         0.0736
     61 H20        -4.6338   -7.1485   -0.6472 H         1 <0>         0.1050
     62 H21        -4.0399   -5.5236   -1.0767 H         1 <0>         0.0748
     63 H22        -2.1189   -6.9836   -0.6472 H         1 <0>         0.1005
     64 H23        -2.7892   -7.4510    0.9347 H         1 <0>         0.0938
     65 H24        -6.4825   -4.6921    2.6866 H         1 <0>         0.1237
     66 H25        -8.6849   -5.5944    3.3126 H         1 <0>         0.1306
     67 H26        -8.2301   -8.7202    0.4461 H         1 <0>         0.1280
     68 H27        -6.0312   -7.8199   -0.1953 H         1 <0>         0.1240
     69 H28        -9.9460   -8.8419    2.1557 H         1 <0>         0.1052
     70 H29       -10.1356   -7.5378    3.3521 H         1 <0>         0.0893
     71 H30       -10.8330   -7.3027    0.3745 H         1 <0>         0.1600
     72 H31       -14.1191   -6.8957    2.5476 H         1 <0>         0.4202
     73 H32         0.8538   -5.6520    4.0553 H         1 <0>         0.3877
     74 H33        -0.7405   -6.4806    2.0076 H         1 <0>         0.4311
@<TRIPOS>BOND
     1    1    6 ar
     2    1    2 ar
     3    1   43 1
     4    2    3 ar
     5    2   44 1
     6    3    4 ar
     7    3   45 1
     8    4    5 ar
     9    4    7 1
    10    5    6 ar
    11    5   46 1
    12    6   47 1
    13    7    8 2
    14    7    9 2
    15    7   10 1
    16   10   11 1
    17   10   48 1
    18   11   16 ar
    19   11   12 ar
    20   12   13 ar
    21   12   49 1
    22   13   14 ar
    23   13   18 1
    24   14   15 ar
    25   14   50 1
    26   15   16 ar
    27   15   51 1
    28   16   17 1
    29   17   52 1
    30   18   19 1
    31   18   20 1
    32   18   42 1
    33   20   21 1
    34   20   53 1
    35   20   54 1
    36   21   22 1
    37   21   55 1
    38   21   74 1
    39   22   27 1
    40   22   23 1
    41   22   56 1
    42   23   24 1
    43   23   57 1
    44   23   58 1
    45   24   25 1
    46   24   59 1
    47   24   60 1
    48   25   26 1
    49   25   28 1
    50   26   27 1
    51   26   61 1
    52   26   62 1
    53   27   63 1
    54   27   64 1
    55   28   33 ar
    56   28   29 ar
    57   29   30 ar
    58   29   65 1
    59   30   31 ar
    60   30   66 1
    61   31   32 ar
    62   31   34 1
    63   32   33 ar
    64   32   67 1
    65   33   68 1
    66   34   35 1
    67   34   69 1
    68   34   70 1
    69   35   41 1
    70   35   36 1
    71   35   71 1
    72   36   37 2
    73   36   38 am
    74   38   39 am
    75   38   72 1
    76   39   40 2
    77   39   41 1
    78   42   73 1
@<TRIPOS>MOLECULE
CHEMBL424167__3
   73    77     0     0     0
SMALL
USER_CHARGES

@<TRIPOS>ATOM
      1 C1         -0.0226    1.1057   -0.2372 C.ar      1 <0>        -0.0663
      2 C2          1.1374    1.8576   -0.2283 C.ar      1 <0>        -0.1383
      3 C3          2.3676    1.2297   -0.1722 C.ar      1 <0>        -0.0123
      4 C4          2.4379   -0.1500   -0.1245 C.ar      1 <0>        -0.6640
      5 C5          1.2779   -0.9019   -0.1325 C.ar      1 <0>        -0.0172
      6 C6          0.0477   -0.2740   -0.1901 C.ar      1 <0>        -0.1480
      7 S1          4.0061   -0.9504   -0.0541 S.o2      1 <0>         2.6866
      8 O1          3.8161   -2.2618   -0.5674 O.2       1 <0>        -0.9650
      9 O2          4.9497   -0.0444   -0.6091 O.2       1 <0>        -0.9648
     10 N1          4.3976   -1.1204    1.5459 N.pl3     1 <0>        -1.0221
     11 C7          3.5707   -1.8670    2.3932 C.ar      1 <0>         0.0011
     12 C8          2.9251   -2.9981    1.9155 C.ar      1 <0>        -0.1001
     13 C9          2.1094   -3.7339    2.7543 C.ar      1 <0>        -0.2768
     14 C10         1.9347   -3.3456    4.0697 C.ar      1 <0>        -0.0558
     15 C11         2.5751   -2.2192    4.5529 C.ar      1 <0>        -0.2502
     16 C12         3.3983   -1.4794    3.7202 C.ar      1 <0>         0.2808
     17 O3          4.0329   -0.3742    4.1956 O.3       1 <0>        -0.6940
     18 C13         1.4084   -4.9622    2.2338 C.3       1 <0>         0.1618
     19 H1          1.9642   -5.3667    1.3879 H         1 <0>         0.1167
     20 C14        -0.0058   -4.5900    1.7838 C.3       1 <0>        -0.0497
     21 N2         -0.6892   -5.7873    1.2763 N.4       1 <0>        -0.5043
     22 C15        -2.0470   -5.4300    0.8443 C.3       1 <0>         0.0261
     23 C16        -2.8652   -4.9778    2.0560 C.3       1 <0>        -0.1598
     24 C17        -4.2695   -4.5732    1.5967 C.3       1 <0>         0.1257
     25 N3         -4.8634   -5.6909    0.8506 N.pl3     1 <0>        -0.6345
     26 C18        -4.1172   -6.2622   -0.2788 C.3       1 <0>         0.1257
     27 C19        -2.7146   -6.6479    0.2016 C.3       1 <0>        -0.1588
     28 C20        -6.1134   -6.2011    1.2085 C.ar      1 <0>         0.2164
     29 C21        -6.8646   -5.5744    2.1948 C.ar      1 <0>        -0.1912
     30 C22        -8.1004   -6.0812    2.5459 C.ar      1 <0>        -0.0500
     31 C23        -8.5900   -7.2114    1.9173 C.ar      1 <0>        -0.1463
     32 C24        -7.8448   -7.8377    0.9351 C.ar      1 <0>        -0.0584
     33 C25        -6.6107   -7.3329    0.5751 C.ar      1 <0>        -0.1944
     34 C26        -9.9385   -7.7621    2.3038 C.3       1 <0>        -0.0491
     35 C27       -11.0202   -7.1202    1.4327 C.3       1 <0>        -0.0705
     36 C28       -12.4099   -7.5898    1.8395 C.2       1 <0>         0.5293
     37 O4        -12.7482   -8.7518    1.7675 O.2       1 <0>        -0.4578
     38 N4        -13.2225   -6.6429    2.2773 N.am      1 <0>        -0.6902
     39 C29       -12.8712   -5.3467    2.3671 C.2       1 <0>         0.5607
     40 O5        -13.5454   -4.4123    2.7550 O.2       1 <0>        -0.4154
     41 S2        -11.1824   -5.3199    1.7838 S.3       1 <0>        -0.1436
     42 O6          1.3357   -5.9441    3.2694 O.3       1 <0>        -0.5586
     43 H2         -0.9839    1.5964   -0.2766 H         1 <0>         0.1288
     44 H3          1.0825    2.9356   -0.2656 H         1 <0>         0.1334
     45 H4          3.2739    1.8171   -0.1659 H         1 <0>         0.1406
     46 H5          1.3328   -1.9798   -0.0956 H         1 <0>         0.1312
     47 H6         -0.8585   -0.8614   -0.1967 H         1 <0>         0.1245
     48 H7          5.2000   -0.7027    1.8959 H         1 <0>         0.4262
     49 H8          3.0596   -3.3034    0.8883 H         1 <0>         0.1366
     50 H9          1.2962   -3.9233    4.7215 H         1 <0>         0.0921
     51 H10         2.4365   -1.9186    5.5809 H         1 <0>         0.1057
     52 H11        -0.5616   -4.1855    2.6297 H         1 <0>         0.1337
     53 H12         0.0496   -3.8410    0.9938 H         1 <0>         0.1382
     54 H13        -0.1747   -6.1617    0.4933 H         1 <0>         0.4269
     55 H14        -1.9953   -4.6188    0.1181 H         1 <0>         0.1386
     56 H15        -2.9384   -5.7967    2.7717 H         1 <0>         0.0918
     57 H16        -2.3766   -4.1248    2.5271 H         1 <0>         0.1011
     58 H17        -4.8866   -4.3450    2.4657 H         1 <0>         0.1024
     59 H18        -4.2047   -3.6968    0.9517 H         1 <0>         0.0746
     60 H19        -4.6338   -7.1485   -0.6472 H         1 <0>         0.1020
     61 H20        -4.0399   -5.5236   -1.0767 H         1 <0>         0.0744
     62 H21        -2.1189   -6.9836   -0.6472 H         1 <0>         0.0987
     63 H22        -2.7892   -7.4510    0.9347 H         1 <0>         0.0915
     64 H23        -6.4825   -4.6921    2.6866 H         1 <0>         0.1250
     65 H24        -8.6849   -5.5944    3.3126 H         1 <0>         0.1294
     66 H25        -8.2301   -8.7202    0.4461 H         1 <0>         0.1261
     67 H26        -6.0312   -7.8199   -0.1953 H         1 <0>         0.1238
     68 H27        -9.9460   -8.8419    2.1557 H         1 <0>         0.1040
     69 H28       -10.1356   -7.5378    3.3521 H         1 <0>         0.0882
     70 H29       -10.8330   -7.3027    0.3745 H         1 <0>         0.1600
     71 H30       -14.1191   -6.8957    2.5476 H         1 <0>         0.4188
     72 H31         0.8538   -5.6520    4.0553 H         1 <0>         0.3811
     73 H32        -0.7405   -6.4806    2.0076 H         1 <0>         0.4270
@<TRIPOS>BOND
     1    1    6 ar
     2    1    2 ar
     3    1   43 1
     4    2    3 ar
     5    2   44 1
     6    3    4 ar
     7    3   45 1
     8    4    5 ar
     9    4    7 1
    10    5    6 ar
    11    5   46 1
    12    6   47 1
    13    7    8 2
    14    7    9 2
    15    7   10 1
    16   10   11 1
    17   10   48 1
    18   11   16 ar
    19   11   12 ar
    20   12   13 ar
    21   12   49 1
    22   13   14 ar
    23   13   18 1
    24   14   15 ar
    25   14   50 1
    26   15   16 ar
    27   15   51 1
    28   16   17 1
    29   18   19 1
    30   18   20 1
    31   18   42 1
    32   20   21 1
    33   20   52 1
    34   20   53 1
    35   21   22 1
    36   21   54 1
    37   21   73 1
    38   22   27 1
    39   22   23 1
    40   22   55 1
    41   23   24 1
    42   23   56 1
    43   23   57 1
    44   24   25 1
    45   24   58 1
    46   24   59 1
    47   25   26 1
    48   25   28 1
    49   26   27 1
    50   26   60 1
    51   26   61 1
    52   27   62 1
    53   27   63 1
    54   28   33 ar
    55   28   29 ar
    56   29   30 ar
    57   29   64 1
    58   30   31 ar
    59   30   65 1
    60   31   32 ar
    61   31   34 1
    62   32   33 ar
    63   32   66 1
    64   33   67 1
    65   34   35 1
    66   34   68 1
    67   34   69 1
    68   35   41 1
    69   35   36 1
    70   35   70 1
    71   36   37 2
    72   36   38 am
    73   38   39 am
    74   38   71 1
    75   39   40 2
    76   39   41 1
    77   42   72 1
@<TRIPOS>MOLECULE
CHEMBL562153
   66    69     0     0     0
SMALL
USER_CHARGES

@<TRIPOS>ATOM
      1 C1          2.1307  -11.1902   -4.4548 C.ar      1 <0>        -0.0398
      2 C2          0.7936  -11.0591   -4.8256 C.ar      1 <0>        -0.0867
      3 C3          0.0296  -10.0362   -4.3519 C.ar      1 <0>        -0.0684
      4 C4          0.5969   -9.0977   -3.4756 C.ar      1 <0>        -0.1012
      5 C5         -0.1412   -8.0227   -2.9545 C.ar      1 <0>         0.2207
      6 N1          0.4326   -7.1705   -2.1378 N.ar      1 <0>        -0.4415
      7 C6          1.7024   -7.2727   -1.7696 C.ar      1 <0>         0.0948
      8 C7          2.5027   -8.2786   -2.2190 C.ar      1 <0>        -0.0543
      9 C8          1.9585   -9.2322   -3.0988 C.ar      1 <0>         0.0112
     10 C9          2.7146  -10.2985   -3.6066 C.ar      1 <0>        -0.1135
     11 C10         2.2763   -6.2461   -0.8274 C.3       1 <0>        -0.1177
     12 C11         2.1927   -6.7600    0.5868 C.2       1 <0>         0.5165
     13 O1          1.7142   -7.8524    0.8078 O.2       1 <0>        -0.5117
     14 N2          2.6497   -6.0057    1.6060 N.am      1 <0>        -0.6651
     15 C12         2.4848   -6.4394    2.9261 C.ar      1 <0>         0.1484
     16 C13         2.2410   -5.5179    3.9359 C.ar      1 <0>        -0.1336
     17 C14         2.0787   -5.9492    5.2379 C.ar      1 <0>        -0.0867
     18 C15         2.1589   -7.2970    5.5364 C.ar      1 <0>        -0.1126
     19 C16         2.4020   -8.2171    4.5332 C.ar      1 <0>        -0.0892
     20 C17         2.5590   -7.7929    3.2283 C.ar      1 <0>        -0.1148
     21 C18         1.9813   -7.7641    6.9582 C.3       1 <0>        -0.1032
     22 C19         0.5020   -8.0555    7.2183 C.3       1 <0>        -0.0058
     23 N3          0.3290   -8.5108    8.6042 N.4       1 <0>        -0.5042
     24 C20        -1.0914   -8.7905    8.8540 C.3       1 <0>        -0.0413
     25 C21        -1.2716   -9.2647   10.2974 C.3       1 <0>         0.0850
     26 H1         -0.9287   -8.4877   10.9806 H         1 <0>         0.1372
     27 C22        -2.7509   -9.5561   10.5576 C.3       1 <0>         0.0294
     28 O2         -2.9362   -9.8866   11.9354 O.3       1 <0>        -0.3008
     29 C23        -4.2032  -10.1750   12.3361 C.ar      1 <0>         0.1070
     30 C24        -5.2440  -10.1457   11.4198 C.ar      1 <0>        -0.1918
     31 C25        -6.5310  -10.4387   11.8268 C.ar      1 <0>        -0.1070
     32 C26        -6.7825  -10.7627   13.1518 C.ar      1 <0>         0.0825
     33 C27        -5.7416  -10.7928   14.0679 C.ar      1 <0>        -0.1019
     34 C28        -4.4539  -10.5040   13.6600 C.ar      1 <0>        -0.1247
     35 O3         -8.0497  -11.0502   13.5527 O.3       1 <0>        -0.4953
     36 O4         -0.5078  -10.4542   10.5069 O.3       1 <0>        -0.5424
     37 H2          2.7116  -12.0139   -4.8425 H         1 <0>         0.1545
     38 H3          0.3563  -11.7804   -5.5001 H         1 <0>         0.1552
     39 H4         -1.0050   -9.9475   -4.6485 H         1 <0>         0.1585
     40 H5         -1.1791   -7.8972   -3.2255 H         1 <0>         0.2185
     41 H6          3.5345   -8.3429   -1.9067 H         1 <0>         0.1801
     42 H7          3.7516  -10.4120   -3.3271 H         1 <0>         0.1564
     43 H8          3.3188   -6.0591   -1.0850 H         1 <0>         0.1507
     44 H9          1.7094   -5.3189   -0.9112 H         1 <0>         0.1316
     45 H10         3.0929   -5.1622    1.4244 H         1 <0>         0.4214
     46 H11         2.1787   -4.4650    3.7035 H         1 <0>         0.1354
     47 H12         1.8895   -5.2330    6.0238 H         1 <0>         0.1338
     48 H13         2.4643   -9.2691    4.7696 H         1 <0>         0.1310
     49 H14         2.7438   -8.5124    2.4444 H         1 <0>         0.1432
     50 H15         2.5639   -8.6714    7.1180 H         1 <0>         0.0994
     51 H16         2.3242   -6.9871    7.6414 H         1 <0>         0.1002
     52 H17        -0.0806   -7.1482    7.0585 H         1 <0>         0.1341
     53 H18         0.1591   -8.8325    6.5351 H         1 <0>         0.1327
     54 H19         0.8683   -9.3506    8.7521 H         1 <0>         0.4345
     55 H20        -1.6739   -7.8833    8.6942 H         1 <0>         0.1472
     56 H21        -1.4342   -9.5676    8.1708 H         1 <0>         0.1393
     57 H22        -3.3434   -8.6747   10.3125 H         1 <0>         0.0814
     58 H23        -3.0710  -10.3931    9.9370 H         1 <0>         0.0761
     59 H24        -5.0481   -9.8935   10.3881 H         1 <0>         0.1271
     60 H25        -7.3415  -10.4152   11.1134 H         1 <0>         0.1351
     61 H26        -5.9375  -11.0447   15.0997 H         1 <0>         0.1429
     62 H27        -3.6428  -10.5312   14.3726 H         1 <0>         0.1393
     63 H28        -8.2804  -11.9869   13.4857 H         1 <0>         0.3949
     64 H29        -0.7593  -11.1895    9.9315 H         1 <0>         0.3898
     65 H30         0.6464   -7.7915    9.2367 H         1 <0>         0.4325
     66 H31        -0.0944   -6.4345   -1.7891 H         1 <0>         0.4455
@<TRIPOS>BOND
     1    1   10 ar
     2    1    2 ar
     3    1   37 1
     4    2    3 ar
     5    2   38 1
     6    3    4 ar
     7    3   39 1
     8    4    9 ar
     9    4    5 ar
    10    5    6 ar
    11    5   40 1
    12    6    7 ar
    13    6   66 1
    14    7    8 ar
    15    7   11 1
    16    8    9 ar
    17    8   41 1
    18    9   10 ar
    19   10   42 1
    20   11   12 1
    21   11   43 1
    22   11   44 1
    23   12   13 2
    24   12   14 am
    25   14   15 1
    26   14   45 1
    27   15   20 ar
    28   15   16 ar
    29   16   17 ar
    30   16   46 1
    31   17   18 ar
    32   17   47 1
    33   18   19 ar
    34   18   21 1
    35   19   20 ar
    36   19   48 1
    37   20   49 1
    38   21   22 1
    39   21   50 1
    40   21   51 1
    41   22   23 1
    42   22   52 1
    43   22   53 1
    44   23   24 1
    45   23   54 1
    46   23   65 1
    47   24   25 1
    48   24   55 1
    49   24   56 1
    50   25   26 1
    51   25   27 1
    52   25   36 1
    53   27   28 1
    54   27   57 1
    55   27   58 1
    56   28   29 1
    57   29   34 ar
    58   29   30 ar
    59   30   31 ar
    60   30   59 1
    61   31   32 ar
    62   31   60 1
    63   32   33 ar
    64   32   35 1
    65   33   34 ar
    66   33   61 1
    67   34   62 1
    68   35   63 1
    69   36   64 1
@<TRIPOS>MOLECULE
CHEMBL562153__1
   65    68     0     0     0
SMALL
USER_CHARGES

@<TRIPOS>ATOM
      1 C1          4.0664   -8.2557    6.5265 C.ar      1 <0>        -0.0940
      2 C2          3.8024   -9.5974    6.2569 C.ar      1 <0>        -0.1169
      3 C3          3.4155  -10.0021    5.0156 C.ar      1 <0>        -0.0868
      4 C4          3.2798   -9.0535    3.9899 C.ar      1 <0>        -0.1120
      5 C5          2.8838   -9.4111    2.6909 C.ar      1 <0>         0.1547
      6 N1          2.7704   -8.4883    1.7646 N.ar      1 <0>        -0.4667
      7 C6          3.0156   -7.2057    1.9952 C.ar      1 <0>         0.1140
      8 C7          3.4051   -6.7569    3.2204 C.ar      1 <0>        -0.1458
      9 C8          3.5489   -7.6876    4.2657 C.ar      1 <0>        -0.0233
     10 C9          3.9453   -7.3076    5.5560 C.ar      1 <0>        -0.1144
     11 C10         2.8592   -6.2165    0.8690 C.3       1 <0>        -0.0885
     12 C11         3.7021   -6.6513   -0.3021 C.2       1 <0>         0.5229
     13 O1          4.3646   -7.6646   -0.2295 O.2       1 <0>        -0.4950
     14 N2          3.7197   -5.9141   -1.4302 N.am      1 <0>        -0.6820
     15 C12         4.5750   -6.2635   -2.4811 C.ar      1 <0>         0.1689
     16 C13         5.1671   -5.2739   -3.2549 C.ar      1 <0>        -0.1442
     17 C14         6.0108   -5.6221   -4.2914 C.ar      1 <0>        -0.0880
     18 C15         6.2662   -6.9545   -4.5591 C.ar      1 <0>        -0.1296
     19 C16         5.6779   -7.9423   -3.7908 C.ar      1 <0>        -0.0879
     20 C17         4.8381   -7.6005   -2.7489 C.ar      1 <0>        -0.1183
     21 C18         7.1873   -7.3309   -5.6909 C.3       1 <0>        -0.0966
     22 C19         8.6230   -7.4243   -5.1704 C.3       1 <0>        -0.0075
     23 N3          9.5209   -7.7912   -6.2737 N.4       1 <0>        -0.5036
     24 C20        10.8994   -7.8808   -5.7740 C.3       1 <0>        -0.0420
     25 C21        11.8346   -8.2629   -6.9231 C.3       1 <0>         0.0859
     26 H1         11.7797   -7.5042   -7.7037 H         1 <0>         0.1362
     27 C22        13.2703   -8.3563   -6.4026 C.3       1 <0>         0.0288
     28 O2         14.1584   -8.5983   -7.4957 O.3       1 <0>        -0.3011
     29 C23        15.4818   -8.7087   -7.2031 C.ar      1 <0>         0.1089
     30 C24        15.9138   -8.5922   -5.8903 C.ar      1 <0>        -0.1914
     31 C25        17.2581   -8.7044   -5.5930 C.ar      1 <0>        -0.1061
     32 C26        18.1758   -8.9340   -6.6073 C.ar      1 <0>         0.0803
     33 C27        17.7436   -9.0515   -7.9200 C.ar      1 <0>        -0.1027
     34 C28        16.3989   -8.9436   -8.2167 C.ar      1 <0>        -0.1260
     35 O3         19.4993   -9.0436   -6.3148 O.3       1 <0>        -0.4957
     36 O4         11.4390   -9.5272   -7.4589 O.3       1 <0>        -0.5434
     37 H2          4.3673   -7.9626    7.5215 H         1 <0>         0.1298
     38 H3          3.9068  -10.3281    7.0453 H         1 <0>         0.1300
     39 H4          3.2148  -11.0454    4.8217 H         1 <0>         0.1352
     40 H5          2.6734  -10.4437    2.4545 H         1 <0>         0.1646
     41 H6          3.6000   -5.7077    3.3863 H         1 <0>         0.1378
     42 H7          4.1525   -6.2713    5.7786 H         1 <0>         0.1322
     43 H8          1.8128   -6.1722    0.5670 H         1 <0>         0.1180
     44 H9          3.1828   -5.2309    1.2036 H         1 <0>         0.1142
     45 H10         3.1395   -5.1412   -1.5137 H         1 <0>         0.4156
     46 H11         4.9677   -4.2331   -3.0465 H         1 <0>         0.1321
     47 H12         6.4712   -4.8530   -4.8937 H         1 <0>         0.1279
     48 H13         5.8791   -8.9821   -4.0026 H         1 <0>         0.1270
     49 H14         4.3830   -8.3723   -2.1459 H         1 <0>         0.1466
     50 H15         6.8855   -8.2952   -6.0996 H         1 <0>         0.0960
     51 H16         7.1325   -6.5722   -6.4716 H         1 <0>         0.0959
     52 H17         8.9248   -6.4599   -4.7617 H         1 <0>         0.1341
     53 H18         8.6779   -8.1830   -4.3897 H         1 <0>         0.1338
     54 H19         9.2416   -8.6839   -6.6520 H         1 <0>         0.4335
     55 H20        11.2012   -6.9165   -5.3653 H         1 <0>         0.1470
     56 H21        10.9542   -8.6395   -4.9933 H         1 <0>         0.1398
     57 H22        13.5415   -7.4202   -5.9145 H         1 <0>         0.0820
     58 H23        13.3446   -9.1744   -5.6862 H         1 <0>         0.0769
     59 H24        15.1993   -8.4133   -5.1005 H         1 <0>         0.1285
     60 H25        17.5946   -8.6129   -4.5709 H         1 <0>         0.1352
     61 H26        18.4583   -9.2300   -8.7099 H         1 <0>         0.1418
     62 H27        16.0620   -9.0388   -9.2384 H         1 <0>         0.1388
     63 H28        19.7856   -9.9465   -6.1202 H         1 <0>         0.3939
     64 H29        11.4637  -10.2511   -6.8181 H         1 <0>         0.3903
     65 H30         9.4702   -7.0888   -6.9964 H         1 <0>         0.4308
@<TRIPOS>BOND
     1    1   10 ar
     2    1    2 ar
     3    1   37 1
     4    2    3 ar
     5    2   38 1
     6    3    4 ar
     7    3   39 1
     8    4    9 ar
     9    4    5 ar
    10    5    6 ar
    11    5   40 1
    12    6    7 ar
    13    7    8 ar
    14    7   11 1
    15    8    9 ar
    16    8   41 1
    17    9   10 ar
    18   10   42 1
    19   11   12 1
    20   11   43 1
    21   11   44 1
    22   12   13 2
    23   12   14 am
    24   14   15 1
    25   14   45 1
    26   15   20 ar
    27   15   16 ar
    28   16   17 ar
    29   16   46 1
    30   17   18 ar
    31   17   47 1
    32   18   19 ar
    33   18   21 1
    34   19   20 ar
    35   19   48 1
    36   20   49 1
    37   21   22 1
    38   21   50 1
    39   21   51 1
    40   22   23 1
    41   22   52 1
    42   22   53 1
    43   23   24 1
    44   23   54 1
    45   23   65 1
    46   24   25 1
    47   24   55 1
    48   24   56 1
    49   25   26 1
    50   25   27 1
    51   25   36 1
    52   27   28 1
    53   27   57 1
    54   27   58 1
    55   28   29 1
    56   29   34 ar
    57   29   30 ar
    58   30   31 ar
    59   30   59 1
    60   31   32 ar
    61   31   60 1
    62   32   33 ar
    63   32   35 1
    64   33   34 ar
    65   33   61 1
    66   34   62 1
    67   35   63 1
    68   36   64 1
@<TRIPOS>MOLECULE
CHEMBL289390
   58    60     0     0     0
SMALL
USER_CHARGES

@<TRIPOS>ATOM
      1 C1         -0.0167    1.3786    0.0096 C.ar      1 <0>        -0.0392
      2 C2          1.1635    2.0954    0.0022 C.ar      1 <0>        -0.1677
      3 C3          2.3878    1.4339   -0.0136 C.ar      1 <0>         0.2043
      4 C4          2.4026    0.0400   -0.0245 C.ar      1 <0>        -0.1689
      5 C5          1.2143   -0.6781   -0.0150 C.ar      1 <0>         0.1797
      6 C6          0.0021   -0.0041    0.0020 C.ar      1 <0>        -0.2185
      7 O1          1.2389   -2.0380   -0.0224 O.3       1 <0>        -0.2872
      8 C7         -0.0224   -2.7096   -0.0118 C.3       1 <0>         0.0276
      9 C8          0.2054   -4.2226   -0.0223 C.3       1 <0>         0.0851
     10 C9         -1.1409   -4.9402   -0.1368 C.3       1 <0>        -0.0417
     11 N1         -0.9222   -6.3928   -0.1468 N.4       1 <0>        -0.5020
     12 C10        -2.2149   -7.0819   -0.2567 C.3       1 <0>        -0.0173
     13 C11        -1.9871   -8.5948   -0.2672 C.3       1 <0>         0.0859
     14 N2         -3.2763   -9.2820   -0.3768 N.pl3     1 <0>        -1.1147
     15 S1         -3.3273  -10.8868   -0.7822 S.o2      1 <0>         2.6974
     16 O2         -4.6977  -11.2627   -0.7806 O.2       1 <0>        -0.9248
     17 O3         -2.4956  -11.0440   -1.9236 O.2       1 <0>        -0.9355
     18 C12        -2.5586  -11.7798    0.5278 C.ar      1 <0>        -0.7083
     19 C13        -1.1974  -12.0200    0.4948 C.ar      1 <0>         0.0397
     20 C14        -0.5940  -12.7207    1.5218 C.ar      1 <0>        -0.1449
     21 C15        -1.3523  -13.1816    2.5835 C.ar      1 <0>         0.1055
     22 C16        -2.7141  -12.9406    2.6162 C.ar      1 <0>        -0.6947
     23 C17        -3.3157  -12.2351    1.5909 C.ar      1 <0>         0.0940
     24 S2         -3.6806  -13.5272    3.9677 S.o2      1 <0>         2.6961
     25 O4         -3.0011  -13.1360    5.1528 O.2       1 <0>        -0.9380
     26 O5         -5.0242  -13.1500    3.7000 O.2       1 <0>        -0.9460
     27 N3         -3.6351  -15.1819    3.9203 N.pl3     1 <0>        -1.2404
     28 Cl1        -0.5951  -14.0624    3.8737 Cl        1 <0>        -0.0042
     29 O6          0.8530   -4.6152    1.1895 O.3       1 <0>        -0.5414
     30 S3          3.9527   -0.8033   -0.0554 S.3       1 <0>        -0.0539
     31 C18         5.0213    0.3684   -0.9455 C.3       1 <0>        -0.1357
     32 C19         4.7611    1.7544   -0.4216 C.2       1 <0>         0.5229
     33 O7          5.6914    2.5308   -0.3677 O.2       1 <0>        -0.5004
     34 N4          3.5665    2.1752   -0.0147 N.am      1 <0>        -0.6565
     35 H1         -0.9614    1.9017    0.0260 H         1 <0>         0.1410
     36 H2          1.1363    3.1751    0.0090 H         1 <0>         0.1406
     37 H3         -0.9250   -0.5580    0.0097 H         1 <0>         0.1349
     38 H4         -0.5746   -2.4316    0.8858 H         1 <0>         0.0805
     39 H5         -0.5945   -2.4222   -0.8940 H         1 <0>         0.0858
     40 H6          0.8330   -4.4896   -0.8726 H         1 <0>         0.1391
     41 H7         -1.7685   -4.6732    0.7135 H         1 <0>         0.1429
     42 H8         -1.6349   -4.6408   -1.0611 H         1 <0>         0.1508
     43 H9         -0.3413   -6.6401   -0.9339 H         1 <0>         0.4354
     44 H10        -2.8425   -6.8148    0.5936 H         1 <0>         0.1441
     45 H11        -2.7089   -6.7824   -1.1811 H         1 <0>         0.1468
     46 H12        -1.3596   -8.8619   -1.1175 H         1 <0>         0.1079
     47 H13        -1.4932   -8.8943    0.6572 H         1 <0>         0.0914
     48 H14        -4.1000   -8.7970   -0.2119 H         1 <0>         0.4303
     49 H15        -0.6056  -11.6602   -0.3339 H         1 <0>         0.1601
     50 H16         0.4692  -12.9088    1.4956 H         1 <0>         0.1607
     51 H17        -4.3782  -12.0434    1.6183 H         1 <0>         0.1736
     52 H18        -3.7046  -15.6927    4.7420 H         1 <0>         0.4291
     53 H19        -3.5391  -15.6403    3.0709 H         1 <0>         0.4198
     54 H20         0.3502   -4.4078    1.9891 H         1 <0>         0.3906
     55 H21         6.0666    0.1062   -0.7822 H         1 <0>         0.1543
     56 H22         4.7953    0.3321   -2.0112 H         1 <0>         0.1282
     57 H23         3.5112    3.0866    0.3129 H         1 <0>         0.4196
     58 H24        -0.4650   -6.6700    0.7089 H         1 <0>         0.4364
@<TRIPOS>BOND
     1    1    6 ar
     2    1    2 ar
     3    1   35 1
     4    2    3 ar
     5    2   36 1
     6    3   34 1
     7    3    4 ar
     8    4    5 ar
     9    4   30 1
    10    5    6 ar
    11    5    7 1
    12    6   37 1
    13    7    8 1
    14    8    9 1
    15    8   38 1
    16    8   39 1
    17    9   10 1
    18    9   29 1
    19    9   40 1
    20   10   11 1
    21   10   41 1
    22   10   42 1
    23   11   12 1
    24   11   43 1
    25   11   58 1
    26   12   13 1
    27   12   44 1
    28   12   45 1
    29   13   14 1
    30   13   46 1
    31   13   47 1
    32   14   15 1
    33   14   48 1
    34   15   16 2
    35   15   17 2
    36   15   18 1
    37   18   23 ar
    38   18   19 ar
    39   19   20 ar
    40   19   49 1
    41   20   21 ar
    42   20   50 1
    43   21   22 ar
    44   21   28 1
    45   22   23 ar
    46   22   24 1
    47   23   51 1
    48   24   25 2
    49   24   26 2
    50   24   27 1
    51   27   52 1
    52   27   53 1
    53   29   54 1
    54   30   31 1
    55   31   32 1
    56   31   55 1
    57   31   56 1
    58   32   33 2
    59   32   34 am
    60   34   57 1
@<TRIPOS>MOLECULE
CHEMBL289390__1
   57    59     0     0     0
SMALL
USER_CHARGES

@<TRIPOS>ATOM
      1 C1         -0.0167    1.3786    0.0096 C.ar      1 <0>        -0.0401
      2 C2          1.1635    2.0954    0.0022 C.ar      1 <0>        -0.1763
      3 C3          2.3878    1.4339   -0.0136 C.ar      1 <0>         0.1984
      4 C4          2.4026    0.0400   -0.0245 C.ar      1 <0>        -0.1739
      5 C5          1.2143   -0.6781   -0.0150 C.ar      1 <0>         0.1896
      6 C6          0.0021   -0.0041    0.0020 C.ar      1 <0>        -0.2191
      7 O1          1.2389   -2.0380   -0.0224 O.3       1 <0>        -0.2867
      8 C7         -0.0224   -2.7096   -0.0118 C.3       1 <0>         0.0252
      9 C8          0.2054   -4.2226   -0.0223 C.3       1 <0>         0.1145
     10 C9         -1.1409   -4.9402   -0.1368 C.3       1 <0>         0.0308
     11 N1         -0.9222   -6.3928   -0.1468 N.3       1 <0>        -0.6765
     12 C10        -2.1961   -7.1163   -0.2559 C.3       1 <0>         0.0523
     13 C11        -1.9281   -8.6226   -0.2633 C.3       1 <0>         0.1124
     14 N2         -3.1985   -9.3441   -0.3721 N.pl3     1 <0>        -1.1145
     15 S1         -3.2066  -10.9505   -0.7743 S.o2      1 <0>         2.6986
     16 O2         -4.5665  -11.3627   -0.7725 O.2       1 <0>        -0.9440
     17 O3         -2.3704  -11.0877   -1.9150 O.2       1 <0>        -0.9444
     18 C12        -2.4151  -11.8201    0.5379 C.ar      1 <0>        -0.7002
     19 C13        -1.0479  -12.0240    0.5060 C.ar      1 <0>         0.0481
     20 C14        -0.4267  -12.7064    1.5347 C.ar      1 <0>        -0.1448
     21 C15        -1.1730  -13.1852    2.5969 C.ar      1 <0>         0.1021
     22 C16        -2.5407  -12.9804    2.6285 C.ar      1 <0>        -0.6971
     23 C17        -3.1603  -12.2932    1.6015 C.ar      1 <0>         0.0927
     24 S2         -3.4919  -13.5898    3.9807 S.o2      1 <0>         2.6983
     25 O4         -2.8238  -13.1783    5.1654 O.2       1 <0>        -0.9402
     26 O5         -4.8450  -13.2490    3.7117 O.2       1 <0>        -0.9489
     27 N3         -3.4025  -15.2428    3.9368 N.pl3     1 <0>        -1.2421
     28 Cl1        -0.3933  -14.0430    3.8892 Cl        1 <0>        -0.0158
     29 O6          0.8530   -4.6152    1.1895 O.3       1 <0>        -0.5349
     30 S3          3.9527   -0.8033   -0.0554 S.3       1 <0>        -0.0479
     31 C18         5.0213    0.3684   -0.9455 C.3       1 <0>        -0.1395
     32 C19         4.7611    1.7544   -0.4216 C.2       1 <0>         0.5247
     33 O7          5.6914    2.5308   -0.3677 O.2       1 <0>        -0.5110
     34 N4          3.5665    2.1752   -0.0147 N.am      1 <0>        -0.6548
     35 H1         -0.9614    1.9017    0.0260 H         1 <0>         0.1377
     36 H2          1.1363    3.1751    0.0090 H         1 <0>         0.1362
     37 H3         -0.9250   -0.5580    0.0097 H         1 <0>         0.1371
     38 H4         -0.5746   -2.4316    0.8858 H         1 <0>         0.0713
     39 H5         -0.5945   -2.4222   -0.8940 H         1 <0>         0.0749
     40 H6          0.8330   -4.4896   -0.8726 H         1 <0>         0.1106
     41 H7         -1.7685   -4.6732    0.7135 H         1 <0>         0.0824
     42 H8         -1.6349   -4.6408   -1.0611 H         1 <0>         0.0467
     43 H9         -0.2910   -6.6583   -0.8879 H         1 <0>         0.3488
     44 H10        -2.8309   -6.8643    0.5935 H         1 <0>         0.0835
     45 H11        -2.6973   -6.8319   -1.1811 H         1 <0>         0.0437
     46 H12        -1.2933   -8.8746   -1.1127 H         1 <0>         0.0838
     47 H13        -1.4269   -8.9070    0.6619 H         1 <0>         0.0789
     48 H14        -4.0349   -8.8808   -0.2085 H         1 <0>         0.4232
     49 H15        -0.4655  -11.6502   -0.3231 H         1 <0>         0.1618
     50 H16         0.6411  -12.8662    1.5093 H         1 <0>         0.1588
     51 H17        -4.2276  -12.1298    1.6280 H         1 <0>         0.1718
     52 H18        -3.4587  -15.7536    4.7594 H         1 <0>         0.4262
     53 H19        -3.2938  -15.7002    3.0883 H         1 <0>         0.4189
     54 H20         0.3502   -4.4078    1.9891 H         1 <0>         0.3744
     55 H21         6.0666    0.1062   -0.7822 H         1 <0>         0.1516
     56 H22         4.7953    0.3321   -2.0112 H         1 <0>         0.1260
     57 H23         3.5112    3.0866    0.3129 H         1 <0>         0.4167
@<TRIPOS>BOND
     1    1    6 ar
     2    1    2 ar
     3    1   35 1
     4    2    3 ar
     5    2   36 1
     6    3   34 1
     7    3    4 ar
     8    4    5 ar
     9    4   30 1
    10    5    6 ar
    11    5    7 1
    12    6   37 1
    13    7    8 1
    14    8    9 1
    15    8   38 1
    16    8   39 1
    17    9   10 1
    18    9   29 1
    19    9   40 1
    20   10   11 1
    21   10   41 1
    22   10   42 1
    23   11   12 1
    24   11   43 1
    25   12   13 1
    26   12   44 1
    27   12   45 1
    28   13   14 1
    29   13   46 1
    30   13   47 1
    31   14   15 1
    32   14   48 1
    33   15   16 2
    34   15   17 2
    35   15   18 1
    36   18   23 ar
    37   18   19 ar
    38   19   20 ar
    39   19   49 1
    40   20   21 ar
    41   20   50 1
    42   21   22 ar
    43   21   28 1
    44   22   23 ar
    45   22   24 1
    46   23   51 1
    47   24   25 2
    48   24   26 2
    49   24   27 1
    50   27   52 1
    51   27   53 1
    52   29   54 1
    53   30   31 1
    54   31   32 1
    55   31   55 1
    56   31   56 1
    57   32   33 2
    58   32   34 am
    59   34   57 1
@<TRIPOS>MOLECULE
CHEMBL289390__2
   58    60     0     0     0
SMALL
USER_CHARGES

@<TRIPOS>ATOM
      1 C1         -0.0167    1.3786    0.0096 C.ar      1 <0>        -0.0393
      2 C2          1.1635    2.0954    0.0022 C.ar      1 <0>        -0.1677
      3 C3          2.3878    1.4339   -0.0136 C.ar      1 <0>         0.2042
      4 C4          2.4026    0.0400   -0.0245 C.ar      1 <0>        -0.1687
      5 C5          1.2143   -0.6781   -0.0150 C.ar      1 <0>         0.1797
      6 C6          0.0021   -0.0041    0.0020 C.ar      1 <0>        -0.2185
      7 O1          1.2389   -2.0380   -0.0224 O.3       1 <0>        -0.2872
      8 C7         -0.0224   -2.7096   -0.0118 C.3       1 <0>         0.0276
      9 C8          0.2054   -4.2226   -0.0223 C.3       1 <0>         0.0855
     10 C9         -1.1381   -4.9416    0.1147 C.3       1 <0>        -0.0417
     11 N1         -0.9101   -6.3886    0.2249 N.4       1 <0>        -0.5025
     12 C10        -2.2001   -7.0789    0.3564 C.3       1 <0>        -0.0174
     13 C11        -1.9627   -8.5860    0.4713 C.3       1 <0>         0.0859
     14 N2         -3.2492   -9.2745    0.6025 N.pl3     1 <0>        -1.1147
     15 S1         -3.3390  -10.9121    0.3738 S.o2      1 <0>         2.6973
     16 O2         -4.6941  -11.2791    0.5933 O.2       1 <0>        -0.9248
     17 O3         -2.6623  -11.1898   -0.8445 O.2       1 <0>        -0.9354
     18 C12        -2.3979  -11.6696    1.6565 C.ar      1 <0>        -0.7082
     19 C13        -1.0507  -11.9186    1.4703 C.ar      1 <0>         0.0396
     20 C14        -0.3122  -12.5131    2.4757 C.ar      1 <0>        -0.1450
     21 C15        -0.9212  -12.8588    3.6692 C.ar      1 <0>         0.1054
     22 C16        -2.2691  -12.6090    3.8550 C.ar      1 <0>        -0.6947
     23 C17        -3.0056  -12.0096    2.8505 C.ar      1 <0>         0.0940
     24 S2         -3.0454  -13.0489    5.3744 S.o2      1 <0>         2.6960
     25 O4         -2.2203  -12.5414    6.4140 O.2       1 <0>        -0.9380
     26 O5         -4.4157  -12.6946    5.2477 O.2       1 <0>        -0.9460
     27 N3         -2.9924  -14.7000    5.4913 N.pl3     1 <0>        -1.2404
     28 Cl1         0.0057  -13.6062    4.9325 Cl        1 <0>        -0.0043
     29 O6          0.8257   -4.6024   -1.2524 O.3       1 <0>        -0.5400
     30 S3          3.9527   -0.8033   -0.0554 S.3       1 <0>        -0.0553
     31 C18         5.0213    0.3684   -0.9455 C.3       1 <0>        -0.1347
     32 C19         4.7611    1.7544   -0.4216 C.2       1 <0>         0.5228
     33 O7          5.6914    2.5308   -0.3677 O.2       1 <0>        -0.5003
     34 N4          3.5665    2.1752   -0.0147 N.am      1 <0>        -0.6565
     35 H1         -0.9614    1.9017    0.0260 H         1 <0>         0.1410
     36 H2          1.1363    3.1751    0.0090 H         1 <0>         0.1406
     37 H3         -0.9250   -0.5580    0.0097 H         1 <0>         0.1349
     38 H4         -0.5746   -2.4316    0.8858 H         1 <0>         0.0851
     39 H5         -0.5945   -2.4222   -0.8940 H         1 <0>         0.0812
     40 H6          0.8518   -4.4984    0.8109 H         1 <0>         0.1370
     41 H7         -1.6514   -4.5855    1.0079 H         1 <0>         0.1497
     42 H8         -1.7512   -4.7362   -0.7629 H         1 <0>         0.1441
     43 H9         -0.4350   -6.7182   -0.6019 H         1 <0>         0.4381
     44 H10        -2.7134   -6.7228    1.2497 H         1 <0>         0.1448
     45 H11        -2.8133   -6.8735   -0.5211 H         1 <0>         0.1463
     46 H12        -1.4494   -8.9421   -0.4219 H         1 <0>         0.1079
     47 H13        -1.3496   -8.7914    1.3488 H         1 <0>         0.0913
     48 H14        -4.0484   -8.7710    0.8232 H         1 <0>         0.4303
     49 H15        -0.5755  -11.6487    0.5387 H         1 <0>         0.1602
     50 H16         0.7400  -12.7082    2.3299 H         1 <0>         0.1606
     51 H17        -4.0570  -11.8108    2.9970 H         1 <0>         0.1736
     52 H18        -2.9494  -15.1233    6.3630 H         1 <0>         0.4291
     53 H19        -3.0043  -15.2437    4.6881 H         1 <0>         0.4198
     54 H20         0.3053   -4.3867   -2.0383 H         1 <0>         0.3913
     55 H21         6.0666    0.1062   -0.7822 H         1 <0>         0.1543
     56 H22         4.7953    0.3321   -2.0112 H         1 <0>         0.1285
     57 H23         3.5112    3.0866    0.3129 H         1 <0>         0.4196
     58 H24        -0.3426   -6.5787    1.0372 H         1 <0>         0.4338
@<TRIPOS>BOND
     1    1    6 ar
     2    1    2 ar
     3    1   35 1
     4    2    3 ar
     5    2   36 1
     6    3   34 1
     7    3    4 ar
     8    4    5 ar
     9    4   30 1
    10    5    6 ar
    11    5    7 1
    12    6   37 1
    13    7    8 1
    14    8    9 1
    15    8   38 1
    16    8   39 1
    17    9   10 1
    18    9   29 1
    19    9   40 1
    20   10   11 1
    21   10   41 1
    22   10   42 1
    23   11   12 1
    24   11   43 1
    25   11   58 1
    26   12   13 1
    27   12   44 1
    28   12   45 1
    29   13   14 1
    30   13   46 1
    31   13   47 1
    32   14   15 1
    33   14   48 1
    34   15   16 2
    35   15   17 2
    36   15   18 1
    37   18   23 ar
    38   18   19 ar
    39   19   20 ar
    40   19   49 1
    41   20   21 ar
    42   20   50 1
    43   21   22 ar
    44   21   28 1
    45   22   23 ar
    46   22   24 1
    47   23   51 1
    48   24   25 2
    49   24   26 2
    50   24   27 1
    51   27   52 1
    52   27   53 1
    53   29   54 1
    54   30   31 1
    55   31   32 1
    56   31   55 1
    57   31   56 1
    58   32   33 2
    59   32   34 am
    60   34   57 1
@<TRIPOS>MOLECULE
CHEMBL289390__3
   57    59     0     0     0
SMALL
USER_CHARGES

@<TRIPOS>ATOM
      1 C1         -0.0167    1.3786    0.0096 C.ar      1 <0>        -0.0401
      2 C2          1.1635    2.0954    0.0022 C.ar      1 <0>        -0.1762
      3 C3          2.3878    1.4339   -0.0136 C.ar      1 <0>         0.1983
      4 C4          2.4026    0.0400   -0.0245 C.ar      1 <0>        -0.1736
      5 C5          1.2143   -0.6781   -0.0150 C.ar      1 <0>         0.1896
      6 C6          0.0021   -0.0041    0.0020 C.ar      1 <0>        -0.2191
      7 O1          1.2389   -2.0380   -0.0224 O.3       1 <0>        -0.2866
      8 C7         -0.0224   -2.7096   -0.0118 C.3       1 <0>         0.0263
      9 C8          0.2054   -4.2226   -0.0223 C.3       1 <0>         0.1115
     10 C9         -1.1381   -4.9416    0.1147 C.3       1 <0>         0.0326
     11 N1         -0.9101   -6.3886    0.2249 N.3       1 <0>        -0.6822
     12 C10        -2.1811   -7.1131    0.3583 C.3       1 <0>         0.0522
     13 C11        -1.9034   -8.6135    0.4703 C.3       1 <0>         0.1121
     14 N2         -3.1709   -9.3361    0.6033 N.pl3     1 <0>        -1.1144
     15 S1         -3.2177  -10.9752    0.3723 S.o2      1 <0>         2.6986
     16 O2         -4.5621  -11.3784    0.5943 O.2       1 <0>        -0.9440
     17 O3         -2.5367  -11.2330   -0.8479 O.2       1 <0>        -0.9441
     18 C12        -2.2540  -11.7094    1.6517 C.ar      1 <0>        -0.7003
     19 C13        -0.9011  -11.9222    1.4621 C.ar      1 <0>         0.0480
     20 C14        -0.1448  -12.4984    2.4650 C.ar      1 <0>        -0.1449
     21 C15        -0.7417  -12.8619    3.6593 C.ar      1 <0>         0.1020
     22 C16        -2.0952  -12.6482    3.8486 C.ar      1 <0>        -0.6971
     23 C17        -2.8497  -12.0671    2.8466 C.ar      1 <0>         0.0927
     24 S2         -2.8562  -13.1108    5.3689 S.o2      1 <0>         2.6982
     25 O4         -2.0424  -12.5831    6.4075 O.2       1 <0>        -0.9403
     26 O5         -4.2357  -12.7928    5.2459 O.2       1 <0>        -0.9488
     27 N3         -2.7591  -14.7600    5.4832 N.pl3     1 <0>        -1.2421
     28 Cl1         0.2076  -13.5862    4.9194 Cl        1 <0>        -0.0159
     29 O6          0.8257   -4.6024   -1.2524 O.3       1 <0>        -0.5456
     30 S3          3.9527   -0.8033   -0.0554 S.3       1 <0>        -0.0489
     31 C18         5.0213    0.3684   -0.9455 C.3       1 <0>        -0.1386
     32 C19         4.7611    1.7544   -0.4216 C.2       1 <0>         0.5247
     33 O7          5.6914    2.5308   -0.3677 O.2       1 <0>        -0.5110
     34 N4          3.5665    2.1752   -0.0147 N.am      1 <0>        -0.6548
     35 H1         -0.9614    1.9017    0.0260 H         1 <0>         0.1377
     36 H2          1.1363    3.1751    0.0090 H         1 <0>         0.1362
     37 H3         -0.9250   -0.5580    0.0097 H         1 <0>         0.1371
     38 H4         -0.5746   -2.4316    0.8858 H         1 <0>         0.0771
     39 H5         -0.5945   -2.4222   -0.8940 H         1 <0>         0.0696
     40 H6          0.8518   -4.4984    0.8109 H         1 <0>         0.1221
     41 H7         -1.6514   -4.5855    1.0079 H         1 <0>         0.0881
     42 H8         -1.7512   -4.7362   -0.7629 H         1 <0>         0.0409
     43 H9         -0.3790   -6.7319   -0.5612 H         1 <0>         0.3541
     44 H10        -2.7015   -6.7721    1.2532 H         1 <0>         0.0837
     45 H11        -2.8014   -6.9228   -0.5175 H         1 <0>         0.0440
     46 H12        -1.3830   -8.9545   -0.4246 H         1 <0>         0.0842
     47 H13        -1.2831   -8.8038    1.3461 H         1 <0>         0.0785
     48 H14        -3.9827   -8.8544    0.8266 H         1 <0>         0.4233
     49 H15        -0.4353  -11.6385    0.5300 H         1 <0>         0.1619
     50 H16         0.9119  -12.6652    2.3166 H         1 <0>         0.1588
     51 H17        -3.9056  -11.8965    2.9957 H         1 <0>         0.1719
     52 H18        -2.7029  -15.1834    6.3542 H         1 <0>         0.4263
     53 H19        -2.7584  -15.3027    4.6792 H         1 <0>         0.4189
     54 H20         0.3053   -4.3867   -2.0383 H         1 <0>         0.3728
     55 H21         6.0666    0.1062   -0.7822 H         1 <0>         0.1516
     56 H22         4.7953    0.3321   -2.0112 H         1 <0>         0.1263
     57 H23         3.5112    3.0866    0.3129 H         1 <0>         0.4167
@<TRIPOS>BOND
     1    1    6 ar
     2    1    2 ar
     3    1   35 1
     4    2    3 ar
     5    2   36 1
     6    3   34 1
     7    3    4 ar
     8    4    5 ar
     9    4   30 1
    10    5    6 ar
    11    5    7 1
    12    6   37 1
    13    7    8 1
    14    8    9 1
    15    8   38 1
    16    8   39 1
    17    9   10 1
    18    9   29 1
    19    9   40 1
    20   10   11 1
    21   10   41 1
    22   10   42 1
    23   11   12 1
    24   11   43 1
    25   12   13 1
    26   12   44 1
    27   12   45 1
    28   13   14 1
    29   13   46 1
    30   13   47 1
    31   14   15 1
    32   14   48 1
    33   15   16 2
    34   15   17 2
    35   15   18 1
    36   18   23 ar
    37   18   19 ar
    38   19   20 ar
    39   19   49 1
    40   20   21 ar
    41   20   50 1
    42   21   22 ar
    43   21   28 1
    44   22   23 ar
    45   22   24 1
    46   23   51 1
    47   24   25 2
    48   24   26 2
    49   24   27 1
    50   27   52 1
    51   27   53 1
    52   29   54 1
    53   30   31 1
    54   31   32 1
    55   31   55 1
    56   31   56 1
    57   32   33 2
    58   32   34 am
    59   34   57 1
@<TRIPOS>MOLECULE
CHEMBL250144
   54    57     0     0     0
SMALL
USER_CHARGES

@<TRIPOS>ATOM
      1 C1         -0.0167    1.3793    0.0096 C.ar      1 <0>        -0.0938
      2 C2          1.1684    2.0933    0.0021 C.ar      1 <0>        -0.1159
      3 C3          2.3774    1.4289   -0.0134 C.ar      1 <0>        -0.0887
      4 C4          2.4033    0.0336   -0.0212 C.ar      1 <0>        -0.0270
      5 C5          1.2044   -0.6806   -0.0131 C.ar      1 <0>        -0.0689
      6 C6          0.0021   -0.0041    0.0020 C.ar      1 <0>        -0.1210
      7 C7          3.6955   -0.6850   -0.0384 C.2       1 <0>         0.1699
      8 N1          3.9294   -1.9877   -0.0532 N.2       1 <0>        -0.4981
      9 C8          5.1601   -2.4633   -0.0675 C.2       1 <0>         0.0959
     10 C9          6.2183   -1.5920   -0.0670 C.2       1 <0>        -0.1986
     11 S1          5.3567   -0.0250   -0.0526 S.3       1 <0>         0.0397
     12 C10         5.3964   -3.9280   -0.0835 C.ar      1 <0>        -0.0394
     13 C11         6.6985   -4.4251   -0.0923 C.ar      1 <0>        -0.0650
     14 C12         6.9150   -5.7873   -0.1071 C.ar      1 <0>        -0.1379
     15 C13         5.8377   -6.6627   -0.1134 C.ar      1 <0>         0.1157
     16 C14         4.5398   -6.1706   -0.1051 C.ar      1 <0>        -0.2023
     17 C15         4.3169   -4.8095   -0.0840 C.ar      1 <0>        -0.0460
     18 O1          6.0542   -8.0043   -0.1281 O.3       1 <0>        -0.3281
     19 C16         4.9006   -8.8476   -0.1337 C.3       1 <0>         0.0242
     20 C17         5.3401  -10.3130   -0.1503 C.3       1 <0>         0.0007
     21 N2          6.0449  -10.6270    1.0998 N.4       1 <0>        -0.5061
     22 C18         6.4669  -12.0340    1.0838 C.3       1 <0>        -0.0435
     23 C19         7.2009  -12.3611    2.3858 C.3       1 <0>         0.1415
     24 H1          6.5342  -12.1912    3.2313 H         1 <0>         0.1337
     25 C20         7.6338  -13.8044    2.3695 C.ar      1 <0>        -0.2003
     26 C21         6.8424  -14.7815    2.9544 C.ar      1 <0>        -0.0549
     27 C22         7.2806  -16.0961    2.9155 C.ar      1 <0>        -0.1642
     28 C23         8.4832  -16.3873    2.2993 C.ar      1 <0>         0.1226
     29 N3          9.2102  -15.4321    1.7537 N.ar      1 <0>        -0.4746
     30 C24         8.8217  -14.1718    1.7665 C.ar      1 <0>         0.1175
     31 O2          8.3500  -11.5205    2.5089 O.3       1 <0>        -0.5451
     32 H2         -0.9605    1.9041    0.0260 H         1 <0>         0.1316
     33 H3          1.1470    3.1730    0.0082 H         1 <0>         0.1346
     34 H4          3.3018    1.9873   -0.0200 H         1 <0>         0.1280
     35 H5          1.2177   -1.7605   -0.0191 H         1 <0>         0.1335
     36 H6         -0.9265   -0.5556    0.0083 H         1 <0>         0.1326
     37 H7          7.2789   -1.7955   -0.0773 H         1 <0>         0.2019
     38 H8          7.5370   -3.7445   -0.0878 H         1 <0>         0.1381
     39 H9          7.9237   -6.1731   -0.1143 H         1 <0>         0.1376
     40 H10         3.7037   -6.8541   -0.1107 H         1 <0>         0.1302
     41 H11         3.3068   -4.4273   -0.0727 H         1 <0>         0.1408
     42 H12         4.3065   -8.6566    0.7599 H         1 <0>         0.0887
     43 H13         4.3016   -8.6379   -1.0199 H         1 <0>         0.1118
     44 H14         4.4637  -10.9542   -0.2442 H         1 <0>         0.1524
     45 H15         6.0068  -10.4828   -0.9958 H         1 <0>         0.1439
     46 H16         6.8562  -10.0335    1.1867 H         1 <0>         0.4395
     47 H17         5.5904  -12.6752    0.9899 H         1 <0>         0.1457
     48 H18         7.1336  -12.2038    0.2384 H         1 <0>         0.1390
     49 H19         5.9072  -14.5243    3.4292 H         1 <0>         0.1410
     50 H20         6.6900  -16.8828    3.3612 H         1 <0>         0.1472
     51 H21         8.8316  -17.4090    2.2648 H         1 <0>         0.1673
     52 H22         9.4414  -13.4175    1.3046 H         1 <0>         0.1533
     53 H23         8.9882  -11.6188    1.7891 H         1 <0>         0.3903
     54 H24         5.4278  -10.4698    1.8824 H         1 <0>         0.4292
@<TRIPOS>BOND
     1    1    6 ar
     2    1    2 ar
     3    1   32 1
     4    2    3 ar
     5    2   33 1
     6    3    4 ar
     7    3   34 1
     8    4    5 ar
     9    4    7 1
    10    5    6 ar
    11    5   35 1
    12    6   36 1
    13    7   11 1
    14    7    8 2
    15    8    9 1
    16    9   10 2
    17    9   12 1
    18   10   11 1
    19   10   37 1
    20   12   17 ar
    21   12   13 ar
    22   13   14 ar
    23   13   38 1
    24   14   15 ar
    25   14   39 1
    26   15   16 ar
    27   15   18 1
    28   16   17 ar
    29   16   40 1
    30   17   41 1
    31   18   19 1
    32   19   20 1
    33   19   42 1
    34   19   43 1
    35   20   21 1
    36   20   44 1
    37   20   45 1
    38   21   22 1
    39   21   46 1
    40   21   54 1
    41   22   23 1
    42   22   47 1
    43   22   48 1
    44   23   24 1
    45   23   25 1
    46   23   31 1
    47   25   30 ar
    48   25   26 ar
    49   26   27 ar
    50   26   49 1
    51   27   28 ar
    52   27   50 1
    53   28   29 ar
    54   28   51 1
    55   29   30 ar
    56   30   52 1
    57   31   53 1
@<TRIPOS>MOLECULE
CHEMBL250144__1
   53    56     0     0     0
SMALL
USER_CHARGES

@<TRIPOS>ATOM
      1 C1         -0.0167    1.3793    0.0096 C.ar      1 <0>        -0.0985
      2 C2          1.1684    2.0933    0.0021 C.ar      1 <0>        -0.1178
      3 C3          2.3774    1.4289   -0.0134 C.ar      1 <0>        -0.0909
      4 C4          2.4033    0.0336   -0.0212 C.ar      1 <0>        -0.0203
      5 C5          1.2044   -0.6806   -0.0131 C.ar      1 <0>        -0.0696
      6 C6          0.0021   -0.0041    0.0020 C.ar      1 <0>        -0.1206
      7 C7          3.6955   -0.6850   -0.0384 C.2       1 <0>         0.1631
      8 N1          3.9294   -1.9877   -0.0532 N.2       1 <0>        -0.4927
      9 C8          5.1601   -2.4633   -0.0675 C.2       1 <0>         0.1101
     10 C9          6.2183   -1.5920   -0.0670 C.2       1 <0>        -0.2003
     11 S1          5.3567   -0.0250   -0.0526 S.3       1 <0>         0.0196
     12 C10         5.3964   -3.9280   -0.0835 C.ar      1 <0>        -0.0675
     13 C11         6.6985   -4.4251   -0.0923 C.ar      1 <0>        -0.0627
     14 C12         6.9150   -5.7873   -0.1071 C.ar      1 <0>        -0.1514
     15 C13         5.8377   -6.6627   -0.1134 C.ar      1 <0>         0.1425
     16 C14         4.5398   -6.1706   -0.1051 C.ar      1 <0>        -0.2102
     17 C15         4.3169   -4.8095   -0.0840 C.ar      1 <0>        -0.0427
     18 O1          6.0542   -8.0043   -0.1281 O.3       1 <0>        -0.3150
     19 C16         4.9006   -8.8476   -0.1337 C.3       1 <0>         0.0582
     20 C17         5.3401  -10.3130   -0.1503 C.3       1 <0>         0.0617
     21 N2          6.0449  -10.6270    1.0998 N.3       1 <0>        -0.6844
     22 C18         6.4827  -12.0291    1.1194 C.3       1 <0>         0.0317
     23 C19         7.2109  -12.3177    2.4336 C.3       1 <0>         0.1562
     24 H1          6.5364  -12.1359    3.2703 H         1 <0>         0.1193
     25 C20         7.6601  -13.7560    2.4538 C.ar      1 <0>        -0.1714
     26 C21         6.8755  -14.7282    3.0556 C.ar      1 <0>        -0.0634
     27 C22         7.3286  -16.0384    3.0502 C.ar      1 <0>        -0.1686
     28 C23         8.5388  -16.3300    2.4494 C.ar      1 <0>         0.0995
     29 N3          9.2589  -15.3795    1.8868 N.ar      1 <0>        -0.4807
     30 C24         8.8563  -14.1237    1.8677 C.ar      1 <0>         0.1071
     31 O2          8.3496  -11.4615    2.5452 O.3       1 <0>        -0.5480
     32 H2         -0.9605    1.9041    0.0260 H         1 <0>         0.1294
     33 H3          1.1470    3.1730    0.0082 H         1 <0>         0.1322
     34 H4          3.3018    1.9873   -0.0200 H         1 <0>         0.1273
     35 H5          1.2177   -1.7605   -0.0191 H         1 <0>         0.1353
     36 H6         -0.9265   -0.5556    0.0083 H         1 <0>         0.1317
     37 H7          7.2789   -1.7955   -0.0773 H         1 <0>         0.2012
     38 H8          7.5370   -3.7445   -0.0878 H         1 <0>         0.1315
     39 H9          7.9237   -6.1731   -0.1143 H         1 <0>         0.1349
     40 H10         3.7037   -6.8541   -0.1107 H         1 <0>         0.1308
     41 H11         3.3068   -4.4273   -0.0727 H         1 <0>         0.1348
     42 H12         4.3065   -8.6566    0.7599 H         1 <0>         0.0754
     43 H13         4.3016   -8.6379   -1.0199 H         1 <0>         0.0696
     44 H14         4.4637  -10.9542   -0.2442 H         1 <0>         0.0935
     45 H15         6.0068  -10.4828   -0.9958 H         1 <0>         0.0428
     46 H16         6.8247  -10.0027    1.2419 H         1 <0>         0.3578
     47 H17         5.6142  -12.6822    1.0343 H         1 <0>         0.0840
     48 H18         7.1573  -12.2108    0.2827 H         1 <0>         0.0366
     49 H19         5.9340  -14.4708    3.5179 H         1 <0>         0.1379
     50 H20         6.7436  -16.8212    3.5100 H         1 <0>         0.1389
     51 H21         8.8988  -17.3482    2.4409 H         1 <0>         0.1584
     52 H22         9.4708  -13.3733    1.3927 H         1 <0>         0.1509
     53 H23         8.9940  -11.5692    1.8323 H         1 <0>         0.3728
@<TRIPOS>BOND
     1    1    6 ar
     2    1    2 ar
     3    1   32 1
     4    2    3 ar
     5    2   33 1
     6    3    4 ar
     7    3   34 1
     8    4    5 ar
     9    4    7 1
    10    5    6 ar
    11    5   35 1
    12    6   36 1
    13    7   11 1
    14    7    8 2
    15    8    9 1
    16    9   10 2
    17    9   12 1
    18   10   11 1
    19   10   37 1
    20   12   17 ar
    21   12   13 ar
    22   13   14 ar
    23   13   38 1
    24   14   15 ar
    25   14   39 1
    26   15   16 ar
    27   15   18 1
    28   16   17 ar
    29   16   40 1
    30   17   41 1
    31   18   19 1
    32   19   20 1
    33   19   42 1
    34   19   43 1
    35   20   21 1
    36   20   44 1
    37   20   45 1
    38   21   22 1
    39   21   46 1
    40   22   23 1
    41   22   47 1
    42   22   48 1
    43   23   24 1
    44   23   25 1
    45   23   31 1
    46   25   30 ar
    47   25   26 ar
    48   26   27 ar
    49   26   49 1
    50   27   28 ar
    51   27   50 1
    52   28   29 ar
    53   28   51 1
    54   29   30 ar
    55   30   52 1
    56   31   53 1
@<TRIPOS>MOLECULE
CHEMBL551892
   57    59     0     0     0
SMALL
USER_CHARGES

@<TRIPOS>ATOM
      1 C1         -0.0126    1.3750   -0.1791 C.ar      1 <0>        -0.0857
      2 C2          1.1743    2.0812   -0.1820 C.ar      1 <0>        -0.1200
      3 C3          2.3796    1.4110   -0.0183 C.ar      1 <0>         0.1708
      4 C4          2.3872    0.0323    0.1478 C.ar      1 <0>        -0.1452
      5 C5          1.1968   -0.6680    0.1497 C.ar      1 <0>        -0.0857
      6 C6         -0.0017    0.0022   -0.0136 C.ar      1 <0>        -0.1298
      7 C7         -1.2987   -0.7652   -0.0110 C.3       1 <0>        -0.0973
      8 C8         -1.6390   -1.1964   -1.4390 C.3       1 <0>        -0.0069
      9 N1         -2.9032   -1.9444   -1.4365 N.4       1 <0>        -0.5039
     10 C9         -3.2299   -2.3584   -2.8076 C.3       1 <0>        -0.0416
     11 C10        -4.5467   -3.1375   -2.8050 C.3       1 <0>         0.0855
     12 H1         -5.3437   -2.5028   -2.4175 H         1 <0>         0.1363
     13 C11        -4.8870   -3.5687   -4.2330 C.3       1 <0>         0.0290
     14 O1         -6.1718   -4.1940   -4.2484 O.3       1 <0>        -0.3011
     15 C12        -6.6276   -4.6389   -5.4499 C.ar      1 <0>         0.1088
     16 C13        -5.8505   -4.4812   -6.5879 C.ar      1 <0>        -0.1914
     17 C14        -6.3134   -4.9331   -7.8083 C.ar      1 <0>        -0.1062
     18 C15        -7.5551   -5.5450   -7.8957 C.ar      1 <0>         0.0804
     19 C16        -8.3317   -5.7035   -6.7576 C.ar      1 <0>        -0.1026
     20 C17        -7.8669   -5.2554   -5.5364 C.ar      1 <0>        -0.1260
     21 O2         -8.0112   -5.9890   -9.0974 O.3       1 <0>        -0.4957
     22 O3         -4.4140   -4.2945   -1.9769 O.3       1 <0>        -0.5432
     23 N2          3.5839    2.1235   -0.0212 N.am      1 <0>        -0.6816
     24 C18         3.6279    3.3746    0.4780 C.2       1 <0>         0.5158
     25 O4          2.6492    3.8477    1.0159 O.2       1 <0>        -0.5012
     26 C19         4.8932    4.1858    0.3677 C.3       1 <0>        -0.0827
     27 C20         4.6798    5.5376    0.9986 C.2       1 <0>        -0.1145
     28 C21         4.2080    6.5965    0.2456 C.2       1 <0>        -0.1497
     29 C22         4.0272    7.7993    0.8438 C.2       1 <0>        -0.1695
     30 S1          4.5304    7.4566    2.5220 S.3       1 <0>         0.0530
     31 C23         4.9424    5.7320    2.3141 C.2       1 <0>        -0.1610
     32 H2         -0.9506    1.8961   -0.3019 H         1 <0>         0.1276
     33 H3          1.1652    3.1533   -0.3117 H         1 <0>         0.1399
     34 H4          3.3229   -0.4918    0.2749 H         1 <0>         0.1326
     35 H5          1.2020   -1.7403    0.2784 H         1 <0>         0.1284
     36 H6         -1.1975   -1.6477    0.6206 H         1 <0>         0.0961
     37 H7         -2.0956   -0.1305    0.3765 H         1 <0>         0.0962
     38 H8         -1.7402   -0.3139   -2.0707 H         1 <0>         0.1343
     39 H9         -0.8420   -1.8311   -1.8265 H         1 <0>         0.1337
     40 H10        -2.8096   -2.7613   -0.8518 H         1 <0>         0.4334
     41 H11        -3.3312   -1.4759   -3.4393 H         1 <0>         0.1471
     42 H12        -2.4330   -2.9931   -3.1951 H         1 <0>         0.1397
     43 H13        -4.9008   -2.6939   -4.8832 H         1 <0>         0.0820
     44 H14        -4.1355   -4.2737   -4.5885 H         1 <0>         0.0768
     45 H15        -4.8837   -4.0047   -6.5198 H         1 <0>         0.1284
     46 H16        -5.7087   -4.8097   -8.6946 H         1 <0>         0.1352
     47 H17        -9.2987   -6.1796   -6.8257 H         1 <0>         0.1418
     48 H18        -8.4701   -5.3822   -4.6495 H         1 <0>         0.1388
     49 H19        -7.7664   -6.9029   -9.2976 H         1 <0>         0.3940
     50 H20        -3.7215   -4.9057   -2.2631 H         1 <0>         0.3899
     51 H21         4.3871    1.7169   -0.3824 H         1 <0>         0.4157
     52 H22         5.7026    3.6683    0.8826 H         1 <0>         0.1087
     53 H23         5.1533    4.3122   -0.6833 H         1 <0>         0.1089
     54 H24         3.9871    6.4674   -0.8036 H         1 <0>         0.1309
     55 H25         3.6713    8.7250    0.4160 H         1 <0>         0.1873
     56 H26         5.3072    5.0268    3.0462 H         1 <0>         0.1840
     57 H27        -3.6409   -1.3569   -1.0778 H         1 <0>         0.4313
@<TRIPOS>BOND
     1    1    6 ar
     2    1    2 ar
     3    1   32 1
     4    2    3 ar
     5    2   33 1
     6    3    4 ar
     7    3   23 1
     8    4    5 ar
     9    4   34 1
    10    5    6 ar
    11    5   35 1
    12    6    7 1
    13    7    8 1
    14    7   36 1
    15    7   37 1
    16    8    9 1
    17    8   38 1
    18    8   39 1
    19    9   10 1
    20    9   40 1
    21    9   57 1
    22   10   11 1
    23   10   41 1
    24   10   42 1
    25   11   12 1
    26   11   13 1
    27   11   22 1
    28   13   14 1
    29   13   43 1
    30   13   44 1
    31   14   15 1
    32   15   20 ar
    33   15   16 ar
    34   16   17 ar
    35   16   45 1
    36   17   18 ar
    37   17   46 1
    38   18   19 ar
    39   18   21 1
    40   19   20 ar
    41   19   47 1
    42   20   48 1
    43   21   49 1
    44   22   50 1
    45   23   24 am
    46   23   51 1
    47   24   25 2
    48   24   26 1
    49   26   27 1
    50   26   52 1
    51   26   53 1
    52   27   31 2
    53   27   28 1
    54   28   29 2
    55   28   54 1
    56   29   30 1
    57   29   55 1
    58   30   31 1
    59   31   56 1
@<TRIPOS>MOLECULE
CHEMBL1204005
   59    61     0     0     0
SMALL
USER_CHARGES

@<TRIPOS>ATOM
      1 C1          3.7313    0.8375    3.0781 C.ar      1 <0>        -0.1477
      2 C2          5.0942    1.0652    3.1314 C.ar      1 <0>        -0.1082
      3 C3          5.9233    0.5320    2.1640 C.ar      1 <0>        -0.1584
      4 C4          5.3867   -0.2335    1.1368 C.ar      1 <0>         0.1680
      5 C5          4.0173   -0.4604    1.0863 C.ar      1 <0>        -0.1051
      6 C6          3.1939    0.0757    2.0568 C.ar      1 <0>        -0.1094
      7 N1          6.2233   -0.7745    0.1553 N.pl3     1 <0>        -0.6852
      8 C7          5.9817   -2.0290   -0.3339 C.2       1 <0>         0.6382
      9 N2          6.8615   -2.6077   -1.1321 N.2       1 <0>        -0.6218
     10 C8          8.0347   -1.9890   -1.4092 C.1       1 <0>         0.3775
     11 N3          9.0182   -1.4702   -1.6415 N.1       1 <0>        -0.5416
     12 N4          4.8291   -2.6844    0.0032 N.2       1 <0>        -0.6691
     13 C9          4.7920   -4.0825   -0.0036 C.ar      1 <0>         0.2401
     14 C10         3.5777   -4.7459   -0.1229 C.ar      1 <0>        -0.1750
     15 C11         3.5446   -6.1266   -0.1298 C.ar      1 <0>        -0.0788
     16 C12         4.7188   -6.8484   -0.0179 C.ar      1 <0>        -0.2108
     17 C13         5.9295   -6.1909    0.1010 C.ar      1 <0>        -0.0811
     18 C14         5.9701   -4.8104    0.1032 C.ar      1 <0>        -0.1804
     19 C15         4.6789   -8.3549   -0.0253 C.3       1 <0>        -0.0753
     20 C16         4.8041   -8.8614   -1.4635 C.3       1 <0>        -0.0096
     21 N5          4.7652  -10.3299   -1.4707 N.4       1 <0>        -0.5036
     22 C17         4.8855  -10.8162   -2.8516 C.3       1 <0>        -0.0418
     23 C18         4.8449  -12.3456   -2.8590 C.3       1 <0>         0.0865
     24 H1          3.9003  -12.6861   -2.4348 H         1 <0>         0.1344
     25 C19         4.9702  -12.8522   -4.2973 C.3       1 <0>         0.0292
     26 O1          4.8158  -14.2727   -4.3172 O.3       1 <0>        -0.3030
     27 C20         4.9005  -14.8856   -5.5272 C.ar      1 <0>         0.1194
     28 C21         5.1333  -14.1359   -6.6710 C.ar      1 <0>        -0.2091
     29 C22         5.2194  -14.7614   -7.8997 C.ar      1 <0>        -0.0797
     30 C23         5.0734  -16.1333   -7.9901 C.ar      1 <0>        -0.1503
     31 C24         4.8409  -16.8827   -6.8517 C.ar      1 <0>        -0.0780
     32 C25         4.7600  -16.2627   -5.6198 C.ar      1 <0>        -0.1462
     33 O2          5.9285  -12.8546   -2.0787 O.3       1 <0>        -0.5449
     34 H2          3.0857    1.2518    3.8384 H         1 <0>         0.1149
     35 H3          5.5108    1.6609    3.9301 H         1 <0>         0.1176
     36 H4          6.9876    0.7105    2.2059 H         1 <0>         0.1152
     37 H5          3.5969   -1.0549    0.2887 H         1 <0>         0.1543
     38 H6          2.1290   -0.1004    2.0181 H         1 <0>         0.1184
     39 H7          6.9750   -0.2602   -0.1785 H         1 <0>         0.4037
     40 H8          2.6603   -4.1828   -0.2099 H         1 <0>         0.1122
     41 H9          2.6007   -6.6431   -0.2222 H         1 <0>         0.1025
     42 H10         6.8448   -6.7576    0.1885 H         1 <0>         0.0981
     43 H11         6.9163   -4.2975    0.1921 H         1 <0>         0.1229
     44 H12         5.5054   -8.7431    0.5700 H         1 <0>         0.0803
     45 H13         3.7343   -8.6954    0.3989 H         1 <0>         0.0807
     46 H14         3.9776   -8.4731   -2.0587 H         1 <0>         0.1315
     47 H15         5.7487   -8.5209   -1.8877 H         1 <0>         0.1311
     48 H16         5.5303  -10.6893   -0.9197 H         1 <0>         0.4304
     49 H17         4.0590  -10.4279   -3.4468 H         1 <0>         0.1455
     50 H18         5.8301  -10.4757   -3.2758 H         1 <0>         0.1384
     51 H19         4.1959  -12.3939   -4.9126 H         1 <0>         0.0818
     52 H20         5.9514  -12.5878   -4.6915 H         1 <0>         0.0766
     53 H21         5.2467  -13.0642   -6.6010 H         1 <0>         0.1250
     54 H22         5.4006  -14.1782   -8.7905 H         1 <0>         0.1281
     55 H23         5.1408  -16.6204   -8.9517 H         1 <0>         0.1280
     56 H24         4.7269  -17.9542   -6.9249 H         1 <0>         0.1336
     57 H25         4.5828  -16.8489   -4.7303 H         1 <0>         0.1326
     58 H26         6.8019  -12.5908   -2.3991 H         1 <0>         0.3899
     59 H27         3.8908  -10.6450   -1.0780 H         1 <0>         0.4274
@<TRIPOS>BOND
     1    1    6 ar
     2    1    2 ar
     3    1   34 1
     4    2    3 ar
     5    2   35 1
     6    3    4 ar
     7    3   36 1
     8    4    5 ar
     9    4    7 1
    10    5    6 ar
    11    5   37 1
    12    6   38 1
    13    7    8 1
    14    7   39 1
    15    8    9 2
    16    8   12 1
    17    9   10 1
    18   10   11 3
    19   12   13 1
    20   13   18 ar
    21   13   14 ar
    22   14   15 ar
    23   14   40 1
    24   15   16 ar
    25   15   41 1
    26   16   17 ar
    27   16   19 1
    28   17   18 ar
    29   17   42 1
    30   18   43 1
    31   19   20 1
    32   19   44 1
    33   19   45 1
    34   20   21 1
    35   20   46 1
    36   20   47 1
    37   21   22 1
    38   21   48 1
    39   21   59 1
    40   22   23 1
    41   22   49 1
    42   22   50 1
    43   23   24 1
    44   23   25 1
    45   23   33 1
    46   25   26 1
    47   25   51 1
    48   25   52 1
    49   26   27 1
    50   27   32 ar
    51   27   28 ar
    52   28   29 ar
    53   28   53 1
    54   29   30 ar
    55   29   54 1
    56   30   31 ar
    57   30   55 1
    58   31   32 ar
    59   31   56 1
    60   32   57 1
    61   33   58 1
@<TRIPOS>MOLECULE
CHEMBL1204005__1
   60    62     0     0     0
SMALL
USER_CHARGES

@<TRIPOS>ATOM
      1 C1          6.5389    1.5654    1.4219 C.ar      1 <0>        -0.1248
      2 C2          6.1598    1.9742    0.1565 C.ar      1 <0>        -0.0990
      3 C3          5.2373    1.2384   -0.5611 C.ar      1 <0>        -0.1380
      4 C4          4.6906    0.0864   -0.0105 C.ar      1 <0>         0.1515
      5 C5          5.0739   -0.3217    1.2606 C.ar      1 <0>        -0.1039
      6 C6          5.9966    0.4189    1.9730 C.ar      1 <0>        -0.1017
      7 N1          3.7559   -0.6607   -0.7342 N.pl3     1 <0>        -0.6473
      8 C7          3.7575   -2.0318   -0.6481 C.2       1 <0>         0.6590
      9 N2          2.7655   -2.7617   -1.2647 N.pl3     1 <0>        -0.6198
     10 C8          1.7294   -2.1261   -1.8634 C.1       1 <0>         0.3854
     11 N3          0.8606   -1.5933   -2.3653 N.1       1 <0>        -0.3717
     12 N4          4.7040   -2.6459    0.0216 N.2       1 <0>        -0.5785
     13 C9          4.6417   -4.0013    0.2082 C.ar      1 <0>         0.1475
     14 C10         3.6221   -4.5562    0.9841 C.ar      1 <0>        -0.1641
     15 C11         3.5653   -5.9222    1.1681 C.ar      1 <0>        -0.0837
     16 C12         4.5161   -6.7419    0.5862 C.ar      1 <0>        -0.1334
     17 C13         5.5294   -6.1986   -0.1835 C.ar      1 <0>        -0.0845
     18 C14         5.5942   -4.8349   -0.3811 C.ar      1 <0>        -0.1271
     19 C15         4.4479   -8.2332    0.7920 C.3       1 <0>        -0.0974
     20 C16         3.5981   -8.8624   -0.3138 C.3       1 <0>        -0.0075
     21 N5          3.5316  -10.3161   -0.1131 N.4       1 <0>        -0.5041
     22 C17         2.7156  -10.9202   -1.1749 C.3       1 <0>        -0.0415
     23 C18         2.6464  -12.4342   -0.9659 C.3       1 <0>         0.0854
     24 H1          2.1962  -12.6469    0.0038 H         1 <0>         0.1359
     25 C19         1.7965  -13.0634   -2.0717 C.3       1 <0>         0.0298
     26 O1          1.6350  -14.4593   -1.8124 O.3       1 <0>        -0.3027
     27 C20         0.9003  -15.1720   -2.7064 C.ar      1 <0>         0.1163
     28 C21         0.3510  -14.5417   -3.8136 C.ar      1 <0>        -0.2095
     29 C22        -0.3951  -15.2684   -4.7211 C.ar      1 <0>        -0.0801
     30 C23        -0.5949  -16.6227   -4.5266 C.ar      1 <0>        -0.1473
     31 C24        -0.0489  -17.2530   -3.4237 C.ar      1 <0>        -0.0764
     32 C25         0.7031  -16.5320   -2.5165 C.ar      1 <0>        -0.1444
     33 O2          3.9656  -12.9819   -1.0091 O.3       1 <0>        -0.5432
     34 H2          7.2636    2.1404    1.9793 H         1 <0>         0.1264
     35 H3          6.5852    2.8701   -0.2711 H         1 <0>         0.1298
     36 H4          4.9410    1.5586   -1.5491 H         1 <0>         0.1257
     37 H5          4.6504   -1.2168    1.6916 H         1 <0>         0.1331
     38 H6          6.2951    0.1021    2.9614 H         1 <0>         0.1269
     39 H7          3.1064   -0.2109   -1.2970 H         1 <0>         0.4199
     40 H8          2.8798   -3.9175    1.4394 H         1 <0>         0.1268
     41 H9          2.7772   -6.3528    1.7680 H         1 <0>         0.1249
     42 H10         6.2688   -6.8441   -0.6343 H         1 <0>         0.1263
     43 H11         6.3829   -4.4125   -0.9861 H         1 <0>         0.1320
     44 H12         5.4541   -8.6510    0.7591 H         1 <0>         0.0960
     45 H13         3.9977   -8.4460    1.7617 H         1 <0>         0.0955
     46 H14         2.5918   -8.4447   -0.2809 H         1 <0>         0.1335
     47 H15         4.0482   -8.6497   -1.2835 H         1 <0>         0.1335
     48 H16         4.4630  -10.7028   -0.1436 H         1 <0>         0.4337
     49 H17         1.7094  -10.5024   -1.1419 H         1 <0>         0.1467
     50 H18         3.1658  -10.7074   -2.1445 H         1 <0>         0.1396
     51 H19         0.8185  -12.5828   -2.0962 H         1 <0>         0.0810
     52 H20         2.2923  -12.9273   -3.0328 H         1 <0>         0.0762
     53 H21         0.5062  -13.4838   -3.9656 H         1 <0>         0.1232
     54 H22        -0.8229  -14.7783   -5.5832 H         1 <0>         0.1285
     55 H23        -1.1788  -17.1890   -5.2370 H         1 <0>         0.1297
     56 H24        -0.2067  -18.3109   -3.2737 H         1 <0>         0.1354
     57 H25         1.1331  -17.0257   -1.6576 H         1 <0>         0.1333
     58 H26         4.4273  -12.8300   -1.8450 H         1 <0>         0.3901
     59 H27         3.1149  -10.5130    0.7845 H         1 <0>         0.4311
     60 H28         2.8087   -3.7307   -1.2704 H         1 <0>         0.4417
@<TRIPOS>BOND
     1    1    6 ar
     2    1    2 ar
     3    1   34 1
     4    2    3 ar
     5    2   35 1
     6    3    4 ar
     7    3   36 1
     8    4    5 ar
     9    4    7 1
    10    5    6 ar
    11    5   37 1
    12    6   38 1
    13    7    8 1
    14    7   39 1
    15    8    9 1
    16    8   12 2
    17    9   10 1
    18    9   60 1
    19   10   11 3
    20   12   13 1
    21   13   18 ar
    22   13   14 ar
    23   14   15 ar
    24   14   40 1
    25   15   16 ar
    26   15   41 1
    27   16   17 ar
    28   16   19 1
    29   17   18 ar
    30   17   42 1
    31   18   43 1
    32   19   20 1
    33   19   44 1
    34   19   45 1
    35   20   21 1
    36   20   46 1
    37   20   47 1
    38   21   22 1
    39   21   48 1
    40   21   59 1
    41   22   23 1
    42   22   49 1
    43   22   50 1
    44   23   24 1
    45   23   25 1
    46   23   33 1
    47   25   26 1
    48   25   51 1
    49   25   52 1
    50   26   27 1
    51   27   32 ar
    52   27   28 ar
    53   28   29 ar
    54   28   53 1
    55   29   30 ar
    56   29   54 1
    57   30   31 ar
    58   30   55 1
    59   31   32 ar
    60   31   56 1
    61   32   57 1
    62   33   58 1
@<TRIPOS>MOLECULE
CHEMBL1204005__2
   60    62     0     0     0
SMALL
USER_CHARGES

@<TRIPOS>ATOM
      1 C1          2.4099    1.3447    0.7651 C.ar      1 <0>        -0.1283
      2 C2          3.6443    1.9534    0.8991 C.ar      1 <0>        -0.0784
      3 C3          4.7827    1.3171    0.4446 C.ar      1 <0>        -0.1376
      4 C4          4.6867    0.0644   -0.1476 C.ar      1 <0>         0.1360
      5 C5          3.4454   -0.5442   -0.2806 C.ar      1 <0>        -0.1839
      6 C6          2.3109    0.0975    0.1760 C.ar      1 <0>        -0.0804
      7 N1          5.8375   -0.5825   -0.6093 N.pl3     1 <0>        -0.6754
      8 C7          5.9122   -1.9482   -0.5815 C.2       1 <0>         0.6834
      9 N2          6.9436   -2.5648   -1.1312 N.2       1 <0>        -0.5512
     10 C8          7.9776   -1.8439   -1.6284 C.1       1 <0>         0.3669
     11 N3          8.8444   -1.2396   -2.0453 N.1       1 <0>        -0.4428
     12 N4          4.9192   -2.6756    0.0154 N.pl3     1 <0>        -0.6452
     13 C9          4.9681   -4.0732   -0.0035 C.ar      1 <0>         0.1685
     14 C10         3.7952   -4.8093   -0.1102 C.ar      1 <0>        -0.1365
     15 C11         3.8470   -6.1893   -0.1291 C.ar      1 <0>        -0.0887
     16 C12         5.0650   -6.8382   -0.0418 C.ar      1 <0>        -0.1212
     17 C13         6.2347   -6.1083    0.0646 C.ar      1 <0>        -0.0885
     18 C14         6.1902   -4.7280    0.0787 C.ar      1 <0>        -0.1011
     19 C15         5.1178   -8.3441   -0.0622 C.3       1 <0>        -0.0983
     20 C16         5.2512   -8.8303   -1.5068 C.3       1 <0>        -0.0080
     21 N5          5.3026  -10.2982   -1.5267 N.4       1 <0>        -0.5037
     22 C17         5.4306  -10.7650   -2.9136 C.3       1 <0>        -0.0418
     23 C18         5.4842  -12.2939   -2.9343 C.3       1 <0>         0.0858
     24 H1          4.5692  -12.6954   -2.4989 H         1 <0>         0.1357
     25 C19         5.6176  -12.7800   -4.3789 C.3       1 <0>         0.0294
     26 O1          5.5506  -14.2071   -4.4093 O.3       1 <0>        -0.3029
     27 C20         5.6537  -14.8038   -5.6260 C.ar      1 <0>         0.1165
     28 C21         5.8218  -14.0319   -6.7664 C.ar      1 <0>        -0.2094
     29 C22         5.9268  -14.6409   -8.0019 C.ar      1 <0>        -0.0801
     30 C23         5.8641  -16.0185   -8.1026 C.ar      1 <0>        -0.1475
     31 C24         5.6962  -16.7900   -6.9675 C.ar      1 <0>        -0.0766
     32 C25         5.5968  -16.1861   -5.7290 C.ar      1 <0>        -0.1446
     33 O2          6.6092  -12.7414   -2.1753 O.3       1 <0>        -0.5436
     34 H2          1.5217    1.8425    1.1254 H         1 <0>         0.1334
     35 H3          3.7182    2.9277    1.3593 H         1 <0>         0.1363
     36 H4          5.7464    1.7932    0.5492 H         1 <0>         0.1329
     37 H5          3.3673   -1.5181   -0.7409 H         1 <0>         0.1354
     38 H6          1.3453   -0.3752    0.0729 H         1 <0>         0.1351
     39 H7          6.5827   -0.0628   -0.9493 H         1 <0>         0.4300
     40 H8          4.1811   -2.2220    0.4518 H         1 <0>         0.4326
     41 H9          2.8436   -4.3031   -0.1781 H         1 <0>         0.1322
     42 H10         2.9353   -6.7622   -0.2118 H         1 <0>         0.1297
     43 H11         7.1843   -6.6181    0.1329 H         1 <0>         0.1292
     44 H12         7.1044   -4.1584    0.1577 H         1 <0>         0.1546
     45 H13         5.9759   -8.6855    0.5167 H         1 <0>         0.0969
     46 H14         4.2027   -8.7457    0.3732 H         1 <0>         0.0963
     47 H15         4.3930   -8.4889   -2.0857 H         1 <0>         0.1345
     48 H16         6.1662   -8.4287   -1.9422 H         1 <0>         0.1349
     49 H17         6.0969  -10.6142   -0.9907 H         1 <0>         0.4336
     50 H18         4.5725  -10.4236   -3.4926 H         1 <0>         0.1470
     51 H19         6.3457  -10.3634   -3.3491 H         1 <0>         0.1401
     52 H20         4.8070  -12.3654   -4.9781 H         1 <0>         0.0812
     53 H21         6.5743  -12.4524   -4.7856 H         1 <0>         0.0764
     54 H22         5.8701  -12.9558   -6.6884 H         1 <0>         0.1235
     55 H23         6.0577  -14.0404   -8.8901 H         1 <0>         0.1285
     56 H24         5.9461  -16.4926   -9.0695 H         1 <0>         0.1296
     57 H25         5.6471  -17.8658   -7.0488 H         1 <0>         0.1352
     58 H26         5.4701  -16.7894   -4.8422 H         1 <0>         0.1332
     59 H27         7.4595  -12.4216   -2.5067 H         1 <0>         0.3904
     60 H28         4.4555  -10.6699   -1.1236 H         1 <0>         0.4306
@<TRIPOS>BOND
     1    1    6 ar
     2    1    2 ar
     3    1   34 1
     4    2    3 ar
     5    2   35 1
     6    3    4 ar
     7    3   36 1
     8    4    5 ar
     9    4    7 1
    10    5    6 ar
    11    5   37 1
    12    6   38 1
    13    7    8 1
    14    7   39 1
    15    8    9 2
    16    8   12 1
    17    9   10 1
    18   10   11 3
    19   12   13 1
    20   12   40 1
    21   13   18 ar
    22   13   14 ar
    23   14   15 ar
    24   14   41 1
    25   15   16 ar
    26   15   42 1
    27   16   17 ar
    28   16   19 1
    29   17   18 ar
    30   17   43 1
    31   18   44 1
    32   19   20 1
    33   19   45 1
    34   19   46 1
    35   20   21 1
    36   20   47 1
    37   20   48 1
    38   21   22 1
    39   21   49 1
    40   21   60 1
    41   22   23 1
    42   22   50 1
    43   22   51 1
    44   23   24 1
    45   23   25 1
    46   23   33 1
    47   25   26 1
    48   25   52 1
    49   25   53 1
    50   26   27 1
    51   27   32 ar
    52   27   28 ar
    53   28   29 ar
    54   28   54 1
    55   29   30 ar
    56   29   55 1
    57   30   31 ar
    58   30   56 1
    59   31   32 ar
    60   31   57 1
    61   32   58 1
    62   33   59 1
@<TRIPOS>MOLECULE
CHEMBL1204005__3
   59    61     0     0     0
SMALL
USER_CHARGES

@<TRIPOS>ATOM
      1 C1          4.5478    1.4573   -2.8142 C.ar      1 <0>        -0.2022
      2 C2          4.5137    2.0975   -1.5890 C.ar      1 <0>        -0.0857
      3 C3          4.9142    1.4303   -0.4481 C.ar      1 <0>        -0.1700
      4 C4          5.3516    0.1147   -0.5322 C.ar      1 <0>         0.2000
      5 C5          5.3847   -0.5254   -1.7644 C.ar      1 <0>        -0.2360
      6 C6          4.9828    0.1475   -2.9015 C.ar      1 <0>        -0.0850
      7 N1          5.7583   -0.5637    0.6212 N.2       1 <0>        -0.7069
      8 C7          5.7147   -1.9305    0.6620 C.2       1 <0>         0.6295
      9 N2          6.5915   -2.5980    1.3913 N.2       1 <0>        -0.6185
     10 C8          7.4675   -1.9282    2.1788 C.1       1 <0>         0.4230
     11 N3          8.2019   -1.3667    2.8389 N.1       1 <0>        -0.5365
     12 N4          4.7635   -2.6061   -0.0522 N.pl3     1 <0>        -0.6713
     13 C9          4.7850   -4.0038   -0.0980 C.ar      1 <0>         0.2116
     14 C10         3.5980   -4.7145   -0.2208 C.ar      1 <0>        -0.1700
     15 C11         3.6228   -6.0946   -0.2663 C.ar      1 <0>        -0.0851
     16 C12         4.8277   -6.7689   -0.1897 C.ar      1 <0>        -0.1605
     17 C13         6.0112   -6.0644   -0.0675 C.ar      1 <0>        -0.0865
     18 C14         5.9939   -4.6840   -0.0267 C.ar      1 <0>        -0.1152
     19 C15         4.8508   -8.2749   -0.2392 C.3       1 <0>        -0.0875
     20 C16         4.9774   -8.7356   -1.6927 C.3       1 <0>        -0.0084
     21 N5          5.0000  -10.2036   -1.7409 N.4       1 <0>        -0.5037
     22 C17         5.1215  -10.6459   -3.1364 C.3       1 <0>        -0.0416
     23 C18         5.1450  -12.1749   -3.1866 C.3       1 <0>         0.0861
     24 H1          4.2215  -12.5667   -2.7604 H         1 <0>         0.1349
     25 C19         5.2715  -12.6356   -4.6401 C.3       1 <0>         0.0293
     26 O1          5.1766  -14.0603   -4.6983 O.3       1 <0>        -0.3028
     27 C20         5.2703  -14.6352   -5.9261 C.ar      1 <0>         0.1187
     28 C21         5.4556  -13.8449   -7.0511 C.ar      1 <0>        -0.2092
     29 C22         5.5510  -14.4319   -8.2980 C.ar      1 <0>        -0.0798
     30 C23         5.4614  -15.8057   -8.4254 C.ar      1 <0>        -0.1495
     31 C24         5.2762  -16.5956   -7.3057 C.ar      1 <0>        -0.0776
     32 C25         5.1864  -16.0139   -6.0559 C.ar      1 <0>        -0.1457
     33 O2          6.2596  -12.6591   -2.4348 O.3       1 <0>        -0.5442
     34 H2          4.2299    1.9799   -3.7043 H         1 <0>         0.1046
     35 H3          4.1737    3.1206   -1.5243 H         1 <0>         0.1085
     36 H4          4.8876    1.9310    0.5085 H         1 <0>         0.1113
     37 H5          5.7246   -1.5482   -1.8332 H         1 <0>         0.1057
     38 H6          5.0083   -0.3497   -3.8599 H         1 <0>         0.1020
     39 H7          4.0740   -2.1159   -0.5268 H         1 <0>         0.4155
     40 H8          2.6567   -4.1885   -0.2802 H         1 <0>         0.1223
     41 H9          2.7001   -6.6478   -0.3613 H         1 <0>         0.1164
     42 H10         6.9506   -6.5940   -0.0076 H         1 <0>         0.1180
     43 H11         6.9189   -4.1341    0.0647 H         1 <0>         0.1539
     44 H12         5.7010   -8.6443    0.3343 H         1 <0>         0.0903
     45 H13         3.9273   -8.6667    0.1871 H         1 <0>         0.0887
     46 H14         4.1272   -8.3663   -2.2662 H         1 <0>         0.1329
     47 H15         5.9009   -8.3438   -2.1189 H         1 <0>         0.1334
     48 H16         5.7870  -10.5455   -1.2100 H         1 <0>         0.4324
     49 H17         4.2713  -10.2766   -3.7099 H         1 <0>         0.1460
     50 H18         6.0450  -10.2542   -3.5627 H         1 <0>         0.1392
     51 H19         4.4703  -12.1936   -5.2324 H         1 <0>         0.0816
     52 H20         6.2353  -12.3191   -5.0390 H         1 <0>         0.0766
     53 H21         5.5249  -12.7717   -6.9522 H         1 <0>         0.1246
     54 H22         5.6953  -13.8171   -9.1742 H         1 <0>         0.1282
     55 H23         5.5359  -16.2627   -9.4011 H         1 <0>         0.1284
     56 H24         5.2062  -17.6684   -7.4079 H         1 <0>         0.1340
     57 H25         5.0462  -16.6316   -5.1812 H         1 <0>         0.1328
     58 H26         7.1167  -12.3498   -2.7585 H         1 <0>         0.3902
     59 H27         4.1451  -10.5663   -1.3463 H         1 <0>         0.4291
@<TRIPOS>BOND
     1    1    6 ar
     2    1    2 ar
     3    1   34 1
     4    2    3 ar
     5    2   35 1
     6    3    4 ar
     7    3   36 1
     8    4    5 ar
     9    4    7 1
    10    5    6 ar
    11    5   37 1
    12    6   38 1
    13    7    8 1
    14    8    9 2
    15    8   12 1
    16    9   10 1
    17   10   11 3
    18   12   13 1
    19   12   39 1
    20   13   18 ar
    21   13   14 ar
    22   14   15 ar
    23   14   40 1
    24   15   16 ar
    25   15   41 1
    26   16   17 ar
    27   16   19 1
    28   17   18 ar
    29   17   42 1
    30   18   43 1
    31   19   20 1
    32   19   44 1
    33   19   45 1
    34   20   21 1
    35   20   46 1
    36   20   47 1
    37   21   22 1
    38   21   48 1
    39   21   59 1
    40   22   23 1
    41   22   49 1
    42   22   50 1
    43   23   24 1
    44   23   25 1
    45   23   33 1
    46   25   26 1
    47   25   51 1
    48   25   52 1
    49   26   27 1
    50   27   32 ar
    51   27   28 ar
    52   28   29 ar
    53   28   53 1
    54   29   30 ar
    55   29   54 1
    56   30   31 ar
    57   30   55 1
    58   31   32 ar
    59   31   56 1
    60   32   57 1
    61   33   58 1
@<TRIPOS>MOLECULE
CHEMBL399522
   53    56     0     0     0
SMALL
USER_CHARGES

@<TRIPOS>ATOM
      1 C1         -0.0167    1.3776    0.0096 C.ar      1 <0>        -0.1643
      2 C2          1.1849    2.0698    0.0019 C.ar      1 <0>        -0.0547
      3 C3          2.3651    1.3426   -0.0133 C.ar      1 <0>        -0.2006
      4 C4          2.3054   -0.0383   -0.0202 C.ar      1 <0>         0.1178
      5 N1          1.1443   -0.6632   -0.0129 N.ar      1 <0>        -0.4747
      6 C5          0.0021   -0.0041    0.0020 C.ar      1 <0>         0.1224
      7 C6          3.6964    2.0488   -0.0227 C.3       1 <0>         0.1416
      8 H1          3.5852    3.0397    0.4177 H         1 <0>         0.1337
      9 C7          4.1918    2.1840   -1.4640 C.3       1 <0>        -0.0435
     10 N2          5.4895    2.8724   -1.4731 N.4       1 <0>        -0.5061
     11 C8          5.9652    3.0022   -2.8569 C.3       1 <0>         0.0006
     12 C9          7.3168    3.7191   -2.8665 C.3       1 <0>         0.0241
     13 O1          8.2908    2.9082   -2.2064 O.3       1 <0>        -0.3279
     14 C10         9.5542    3.4029   -2.1272 C.ar      1 <0>         0.1175
     15 C11         9.8462    4.6468   -2.6697 C.ar      1 <0>        -0.2022
     16 C12        11.1273    5.1518   -2.5904 C.ar      1 <0>        -0.0454
     17 C13        12.1291    4.4117   -1.9649 C.ar      1 <0>        -0.0415
     18 C14        11.8327    3.1631   -1.4212 C.ar      1 <0>        -0.0642
     19 C15        10.5485    2.6658   -1.4989 C.ar      1 <0>        -0.1378
     20 C16        13.5083    4.9518   -1.8784 C.2       1 <0>         0.0940
     21 C17        14.4992    4.2253   -1.2683 C.2       1 <0>        -0.1902
     22 S1         15.8883    5.3352   -1.4594 S.3       1 <0>         0.0608
     23 C18        15.0160    6.6358   -2.3215 C.2       1 <0>         0.1507
     24 N3         13.7940    6.1319   -2.3919 N.2       1 <0>        -0.4856
     25 C19        15.5256    7.9285   -2.8269 C.ar      1 <0>         0.0255
     26 C20        14.6772    8.8306   -3.4796 C.ar      1 <0>        -0.1274
     27 C21        15.1946   10.0255   -3.9347 C.ar      1 <0>         0.1057
     28 N4         16.4686   10.3219   -3.7618 N.ar      1 <0>        -0.4706
     29 C22        17.3022    9.5006   -3.1523 C.ar      1 <0>         0.1103
     30 C23        16.8685    8.2869   -2.6609 C.ar      1 <0>        -0.1472
     31 O2          4.6418    1.2932    0.7371 O.3       1 <0>        -0.5451
     32 H2         -0.9552    1.9117    0.0259 H         1 <0>         0.1473
     33 H3          1.2009    3.1496    0.0072 H         1 <0>         0.1411
     34 H4          3.2203   -0.6121   -0.0320 H         1 <0>         0.1533
     35 H5         -0.9294   -0.5505    0.0083 H         1 <0>         0.1673
     36 H6          4.3030    1.1932   -1.9044 H         1 <0>         0.1390
     37 H7          3.4707    2.7604   -2.0435 H         1 <0>         0.1457
     38 H8          5.3866    3.7896   -1.0655 H         1 <0>         0.4292
     39 H9          6.0764    2.0113   -3.2973 H         1 <0>         0.1440
     40 H10         5.2440    3.5785   -3.4365 H         1 <0>         0.1526
     41 H11         7.6277    3.8946   -3.8964 H         1 <0>         0.1121
     42 H12         7.2257    4.6730   -2.3469 H         1 <0>         0.0889
     43 H13         9.0696    5.2196   -3.1546 H         1 <0>         0.1308
     44 H14        11.3540    6.1195   -3.0130 H         1 <0>         0.1409
     45 H15        12.6070    2.5872   -0.9361 H         1 <0>         0.1384
     46 H16        10.3173    1.7002   -1.0741 H         1 <0>         0.1382
     47 H17        14.4532    3.2523   -0.8017 H         1 <0>         0.2048
     48 H18        13.6334    8.5944   -3.6249 H         1 <0>         0.1460
     49 H19        14.5482   10.7279   -4.4398 H         1 <0>         0.1661
     50 H20        18.3375    9.7842   -3.0331 H         1 <0>         0.1680
     51 H21        17.5554    7.6215   -2.1593 H         1 <0>         0.1412
     52 H22         4.7910    0.3986    0.4015 H         1 <0>         0.3904
     53 H23         6.1570    2.3389   -0.9367 H         1 <0>         0.4394
@<TRIPOS>BOND
     1    1    6 ar
     2    1    2 ar
     3    1   32 1
     4    2    3 ar
     5    2   33 1
     6    3    4 ar
     7    3    7 1
     8    4    5 ar
     9    4   34 1
    10    5    6 ar
    11    6   35 1
    12    7    8 1
    13    7    9 1
    14    7   31 1
    15    9   10 1
    16    9   36 1
    17    9   37 1
    18   10   11 1
    19   10   38 1
    20   10   53 1
    21   11   12 1
    22   11   39 1
    23   11   40 1
    24   12   13 1
    25   12   41 1
    26   12   42 1
    27   13   14 1
    28   14   19 ar
    29   14   15 ar
    30   15   16 ar
    31   15   43 1
    32   16   17 ar
    33   16   44 1
    34   17   18 ar
    35   17   20 1
    36   18   19 ar
    37   18   45 1
    38   19   46 1
    39   20   24 1
    40   20   21 2
    41   21   22 1
    42   21   47 1
    43   22   23 1
    44   23   24 2
    45   23   25 1
    46   25   30 ar
    47   25   26 ar
    48   26   27 ar
    49   26   48 1
    50   27   28 ar
    51   27   49 1
    52   28   29 ar
    53   29   30 ar
    54   29   50 1
    55   30   51 1
    56   31   52 1
@<TRIPOS>MOLECULE
CHEMBL399522__1
   52    55     0     0     0
SMALL
USER_CHARGES

@<TRIPOS>ATOM
      1 C1         -0.0167    1.3776    0.0096 C.ar      1 <0>        -0.1692
      2 C2          1.1849    2.0698    0.0019 C.ar      1 <0>        -0.0658
      3 C3          2.3651    1.3426   -0.0133 C.ar      1 <0>        -0.1723
      4 C4          2.3054   -0.0383   -0.0202 C.ar      1 <0>         0.1097
      5 N1          1.1443   -0.6632   -0.0129 N.ar      1 <0>        -0.4803
      6 C5          0.0021   -0.0041    0.0020 C.ar      1 <0>         0.0995
      7 C6          3.6964    2.0488   -0.0227 C.3       1 <0>         0.1588
      8 H1          3.5852    3.0397    0.4177 H         1 <0>         0.1072
      9 C7          4.1918    2.1840   -1.4640 C.3       1 <0>         0.0314
     10 N2          5.4895    2.8724   -1.4731 N.3       1 <0>        -0.6727
     11 C8          5.9972    3.0204   -2.8436 C.3       1 <0>         0.0592
     12 C9          7.3471    3.7400   -2.8125 C.3       1 <0>         0.0617
     13 O1          8.3071    2.9228   -2.1399 O.3       1 <0>        -0.2943
     14 C10         9.5672    3.4190   -2.0248 C.ar      1 <0>         0.1434
     15 C11         9.8691    4.6701   -2.5447 C.ar      1 <0>        -0.2145
     16 C12        11.1469    5.1765   -2.4292 C.ar      1 <0>        -0.0422
     17 C13        12.1353    4.4306   -1.7895 C.ar      1 <0>        -0.0722
     18 C14        11.8291    3.1747   -1.2685 C.ar      1 <0>        -0.0614
     19 C15        10.5481    2.6760   -1.3826 C.ar      1 <0>        -0.1501
     20 C16        13.5110    4.9723   -1.6639 C.2       1 <0>         0.1089
     21 C17        14.4889    4.2401   -1.0398 C.2       1 <0>        -0.1918
     22 S1         15.8795    5.3550   -1.1844 S.3       1 <0>         0.0394
     23 C18        15.0249    6.6646   -2.0504 C.2       1 <0>         0.1431
     24 N3         13.8060    6.1592   -2.1558 N.2       1 <0>        -0.4805
     25 C19        15.5433    7.9645   -2.5276 C.ar      1 <0>         0.0320
     26 C20        14.7085    8.8730   -3.1887 C.ar      1 <0>        -0.1277
     27 C21        15.2338   10.0745   -3.6167 C.ar      1 <0>         0.1047
     28 N4         16.5027   10.3712   -3.4102 N.ar      1 <0>        -0.4746
     29 C22        17.3236    9.5440   -2.7915 C.ar      1 <0>         0.1071
     30 C23        16.8811    8.3234   -2.3257 C.ar      1 <0>        -0.1491
     31 O2          4.6418    1.2932    0.7371 O.3       1 <0>        -0.5372
     32 H2         -0.9552    1.9117    0.0259 H         1 <0>         0.1383
     33 H3          1.2009    3.1496    0.0072 H         1 <0>         0.1354
     34 H4          3.2203   -0.6121   -0.0320 H         1 <0>         0.1535
     35 H5         -0.9294   -0.5505    0.0083 H         1 <0>         0.1583
     36 H6          4.3030    1.1932   -1.9044 H         1 <0>         0.0799
     37 H7          3.4707    2.7604   -2.0435 H         1 <0>         0.0408
     38 H8          5.4272    3.7677   -1.0120 H         1 <0>         0.3430
     39 H9          6.1210    2.0353   -3.2936 H         1 <0>         0.0863
     40 H10         5.2886    3.6025   -3.4328 H         1 <0>         0.0532
     41 H11         7.6817    3.9289   -3.8325 H         1 <0>         0.0694
     42 H12         7.2417    4.6872   -2.2834 H         1 <0>         0.0633
     43 H13         9.1028    5.2474   -3.0406 H         1 <0>         0.1291
     44 H14        11.3813    6.1498   -2.8342 H         1 <0>         0.1337
     45 H15        12.5930    2.5943   -0.7726 H         1 <0>         0.1313
     46 H16        10.3092    1.7046   -0.9754 H         1 <0>         0.1365
     47 H17        14.4341    3.2613   -0.5866 H         1 <0>         0.2042
     48 H18        13.6689    8.6366   -3.3615 H         1 <0>         0.1474
     49 H19        14.5978   10.7819   -4.1280 H         1 <0>         0.1652
     50 H20        18.3551    9.8281   -2.6445 H         1 <0>         0.1656
     51 H21        17.5576    7.6531   -1.8163 H         1 <0>         0.1403
     52 H22         4.7910    0.3986    0.4015 H         1 <0>         0.3751
@<TRIPOS>BOND
     1    1    6 ar
     2    1    2 ar
     3    1   32 1
     4    2    3 ar
     5    2   33 1
     6    3    4 ar
     7    3    7 1
     8    4    5 ar
     9    4   34 1
    10    5    6 ar
    11    6   35 1
    12    7    8 1
    13    7    9 1
    14    7   31 1
    15    9   10 1
    16    9   36 1
    17    9   37 1
    18   10   11 1
    19   10   38 1
    20   11   12 1
    21   11   39 1
    22   11   40 1
    23   12   13 1
    24   12   41 1
    25   12   42 1
    26   13   14 1
    27   14   19 ar
    28   14   15 ar
    29   15   16 ar
    30   15   43 1
    31   16   17 ar
    32   16   44 1
    33   17   18 ar
    34   17   20 1
    35   18   19 ar
    36   18   45 1
    37   19   46 1
    38   20   24 1
    39   20   21 2
    40   21   22 1
    41   21   47 1
    42   22   23 1
    43   23   24 2
    44   23   25 1
    45   25   30 ar
    46   25   26 ar
    47   26   27 ar
    48   26   48 1
    49   27   28 ar
    50   27   49 1
    51   28   29 ar
    52   29   30 ar
    53   29   50 1
    54   30   51 1
    55   31   52 1
@<TRIPOS>MOLECULE
CHEMBL1204006
   61    63     0     0     0
SMALL
USER_CHARGES

@<TRIPOS>ATOM
      1 C1         -0.5806    0.3637    0.2524 C.ar      1 <0>        -0.1027
      2 C2          0.5485    0.6868   -0.4767 C.ar      1 <0>        -0.1207
      3 C3          1.6736   -0.1127   -0.3990 C.ar      1 <0>        -0.0972
      4 C4          1.6696   -1.2349    0.4081 C.ar      1 <0>        -0.1259
      5 C5          0.5407   -1.5575    1.1379 C.ar      1 <0>        -0.0970
      6 C6         -0.5848   -0.7588    1.0591 C.ar      1 <0>        -0.1204
      7 C7          2.8958   -2.1070    0.4921 C.3       1 <0>         0.1658
      8 N1          3.7598   -1.6317    1.5754 N.pl3     1 <0>        -0.6667
      9 C8          4.9212   -2.2634    1.8375 C.2       1 <0>         0.5526
     10 S1          5.3866   -3.6212    0.9045 S.2       1 <0>        -0.6067
     11 N2          5.7161   -1.8261    2.8342 N.pl3     1 <0>        -0.6415
     12 C9          6.8770   -2.5334    3.1645 C.ar      1 <0>         0.1447
     13 C10         7.7310   -2.9759    2.1626 C.ar      1 <0>        -0.0642
     14 C11         8.8765   -3.6735    2.4920 C.ar      1 <0>        -0.1025
     15 C12         9.1734   -3.9319    3.8177 C.ar      1 <0>        -0.1043
     16 C13         8.3252   -3.4926    4.8176 C.ar      1 <0>        -0.1047
     17 C14         7.1810   -2.7896    4.4952 C.ar      1 <0>        -0.1197
     18 C15        10.4237   -4.6942    4.1734 C.3       1 <0>        -0.1004
     19 C16        11.5806   -3.7127    4.3711 C.3       1 <0>        -0.0067
     20 N3         12.7994   -4.4558    4.7178 N.4       1 <0>        -0.5039
     21 C17        13.9102   -3.5134    4.9076 C.3       1 <0>        -0.0413
     22 C18        15.1796   -4.2873    5.2688 C.3       1 <0>         0.0853
     23 H1         15.4244   -4.9800    4.4635 H         1 <0>         0.1362
     24 C19        16.3365   -3.3058    5.4665 C.3       1 <0>         0.0298
     25 O1         17.5460   -4.0336    5.6888 O.3       1 <0>        -0.3027
     26 C20        18.6770   -3.3059    5.8841 C.ar      1 <0>         0.1166
     27 C21        18.6228   -1.9197    5.8679 C.ar      1 <0>        -0.2095
     28 C22        19.7737   -1.1822    6.0672 C.ar      1 <0>        -0.0801
     29 C23        20.9792   -1.8244    6.2822 C.ar      1 <0>        -0.1476
     30 C24        21.0360   -3.2058    6.2984 C.ar      1 <0>        -0.0765
     31 C25        19.8867   -3.9478    6.1058 C.ar      1 <0>        -0.1445
     32 O2         14.9639   -5.0189    6.4772 O.3       1 <0>        -0.5433
     33 H2         -1.4581    0.9908    0.1951 H         1 <0>         0.1278
     34 H3          0.5516    1.5636   -1.1073 H         1 <0>         0.1280
     35 H4          2.5555    0.1393   -0.9691 H         1 <0>         0.1251
     36 H5          0.5375   -2.4345    1.7682 H         1 <0>         0.1252
     37 H6         -1.4669   -1.0110    1.6289 H         1 <0>         0.1281
     38 H7          2.5967   -3.1362    0.6908 H         1 <0>         0.1005
     39 H8          3.4388   -2.0623   -0.4520 H         1 <0>         0.1005
     40 H9          3.4961   -0.8624    2.1041 H         1 <0>         0.4018
     41 H10         5.4833   -1.0210    3.3225 H         1 <0>         0.4095
     42 H11         7.4994   -2.7751    1.1270 H         1 <0>         0.1540
     43 H12         9.5410   -4.0179    1.7134 H         1 <0>         0.1296
     44 H13         8.5598   -3.6960    5.8520 H         1 <0>         0.1283
     45 H14         6.5210   -2.4432    5.2768 H         1 <0>         0.1293
     46 H15        10.2592   -5.2522    5.0952 H         1 <0>         0.0967
     47 H16        10.6685   -5.3868    3.3681 H         1 <0>         0.0983
     48 H17        11.7452   -3.1546    3.4493 H         1 <0>         0.1352
     49 H18        11.3359   -3.0200    5.1764 H         1 <0>         0.1335
     50 H19        12.6471   -4.9723    5.5711 H         1 <0>         0.4334
     51 H20        14.0748   -2.9553    3.9859 H         1 <0>         0.1472
     52 H21        13.6655   -2.8207    5.7129 H         1 <0>         0.1394
     53 H22        16.4437   -2.6864    4.5760 H         1 <0>         0.0813
     54 H23        16.1310   -2.6707    6.3282 H         1 <0>         0.0760
     55 H24        17.6816   -1.4176    5.6993 H         1 <0>         0.1233
     56 H25        19.7320   -0.1031    6.0547 H         1 <0>         0.1284
     57 H26        21.8780   -1.2461    6.4375 H         1 <0>         0.1296
     58 H27        21.9788   -3.7052    6.4662 H         1 <0>         0.1352
     59 H28        19.9308   -5.0268    6.1229 H         1 <0>         0.1333
     60 H29        14.7413   -4.4650    7.2379 H         1 <0>         0.3898
     61 H30        13.0260   -5.0969    3.9724 H         1 <0>         0.4316
@<TRIPOS>BOND
     1    1    6 ar
     2    1    2 ar
     3    1   33 1
     4    2    3 ar
     5    2   34 1
     6    3    4 ar
     7    3   35 1
     8    4    5 ar
     9    4    7 1
    10    5    6 ar
    11    5   36 1
    12    6   37 1
    13    7    8 1
    14    7   38 1
    15    7   39 1
    16    8    9 1
    17    8   40 1
    18    9   10 2
    19    9   11 1
    20   11   12 1
    21   11   41 1
    22   12   17 ar
    23   12   13 ar
    24   13   14 ar
    25   13   42 1
    26   14   15 ar
    27   14   43 1
    28   15   16 ar
    29   15   18 1
    30   16   17 ar
    31   16   44 1
    32   17   45 1
    33   18   19 1
    34   18   46 1
    35   18   47 1
    36   19   20 1
    37   19   48 1
    38   19   49 1
    39   20   21 1
    40   20   50 1
    41   20   61 1
    42   21   22 1
    43   21   51 1
    44   21   52 1
    45   22   23 1
    46   22   24 1
    47   22   32 1
    48   24   25 1
    49   24   53 1
    50   24   54 1
    51   25   26 1
    52   26   31 ar
    53   26   27 ar
    54   27   28 ar
    55   27   55 1
    56   28   29 ar
    57   28   56 1
    58   29   30 ar
    59   29   57 1
    60   30   31 ar
    61   30   58 1
    62   31   59 1
    63   32   60 1
@<TRIPOS>MOLECULE
CHEMBL1086005
   69    73     0     0     0
SMALL
USER_CHARGES

@<TRIPOS>ATOM
      1 C1         -0.0157    1.3058    0.0092 C.2       1 <0>        -0.1873
      2 C2          0.0021   -0.0041    0.0020 C.2       1 <0>        -0.1495
      3 C3         -1.2926   -0.7753    0.0102 C.3       1 <0>        -0.0477
      4 C4         -1.3183   -1.7262   -1.1586 C.ar      1 <0>        -0.0998
      5 C5         -1.9255   -1.3514   -2.3417 C.ar      1 <0>        -0.0758
      6 C6         -1.9499   -2.2234   -3.4141 C.ar      1 <0>        -0.1435
      7 C7         -1.3665   -3.4726   -3.3059 C.ar      1 <0>        -0.0838
      8 C8         -0.7578   -3.8519   -2.1254 C.ar      1 <0>        -0.2065
      9 C9         -0.7274   -2.9764   -1.0494 C.ar      1 <0>         0.1199
     10 O1         -0.1242   -3.3451    0.1113 O.3       1 <0>        -0.2973
     11 C10         0.4634   -4.6471    0.1519 C.3       1 <0>         0.0296
     12 C11         1.0894   -4.8814    1.5282 C.3       1 <0>         0.0866
     13 C12         1.8256   -6.2226    1.5319 C.3       1 <0>        -0.0433
     14 N1          2.4267   -6.4475    2.8533 N.4       1 <0>        -0.3770
     15 C13         3.4550   -5.4298    3.1011 C.3       1 <0>        -0.0105
     16 C14         4.0277   -5.6100    4.5086 C.3       1 <0>        -0.1364
     17 C15         4.6489   -7.0048    4.6262 C.3       1 <0>        -0.1144
     18 C16         3.5862   -8.0559    4.2931 C.3       1 <0>        -0.1408
     19 C17         3.0298   -7.7851    2.8936 C.3       1 <0>        -0.0048
     20 C18         5.1529   -7.2217    6.0545 C.3       1 <0>         0.0996
     21 N2          5.8524   -8.5063    6.1358 N.am      1 <0>        -0.5621
     22 C19         5.1461   -9.6108    6.4432 C.2       1 <0>         0.5748
     23 O2          3.9502   -9.5265    6.6472 O.2       1 <0>        -0.4959
     24 C20         5.8127  -10.9182    6.5332 C.ar      1 <0>        -0.1758
     25 C21         5.1242  -12.0807    6.8468 C.ar      1 <0>         0.0028
     26 C22         5.7991  -13.2936    6.9205 C.ar      1 <0>        -0.1430
     27 C23         7.1421  -13.3802    6.6901 C.ar      1 <0>        -0.0375
     28 C24         7.8769  -12.2255    6.3693 C.ar      1 <0>        -0.0794
     29 C25         7.2035  -10.9885    6.2915 C.ar      1 <0>         0.0112
     30 C26         7.9143   -9.8095    5.9716 C.ar      1 <0>        -0.1740
     31 C27         9.2789   -9.8889    5.7361 C.ar      1 <0>         0.0038
     32 C28         9.9310  -11.1138    5.8154 C.ar      1 <0>        -0.1406
     33 C29         9.2605  -12.2627    6.1230 C.ar      1 <0>        -0.0393
     34 C30         7.1768   -8.5398    5.8949 C.2       1 <0>         0.5729
     35 O3          7.7670   -7.5135    5.6166 O.2       1 <0>        -0.4889
     36 O4          0.0626   -4.8988    2.5218 O.3       1 <0>        -0.5418
     37 H1          0.9122    1.8585    0.0033 H         1 <0>         0.0992
     38 H2         -0.9582    1.8330    0.0166 H         1 <0>         0.0988
     39 H3          0.9446   -0.5313   -0.0098 H         1 <0>         0.1043
     40 H4         -1.3737   -1.3393    0.9394 H         1 <0>         0.0847
     41 H5         -2.1295   -0.0812   -0.0676 H         1 <0>         0.0782
     42 H6         -2.3819   -0.3764   -2.4286 H         1 <0>         0.1332
     43 H7         -2.4256   -1.9288   -4.3378 H         1 <0>         0.1293
     44 H8         -1.3871   -4.1522   -4.1449 H         1 <0>         0.1277
     45 H9         -0.3023   -4.8275   -2.0414 H         1 <0>         0.1233
     46 H10        -0.3050   -5.3984   -0.0303 H         1 <0>         0.0758
     47 H11         1.2340   -4.7220   -0.6153 H         1 <0>         0.0800
     48 H12         1.7941   -4.0794    1.7480 H         1 <0>         0.1343
     49 H13         1.1209   -7.0245    1.3121 H         1 <0>         0.1386
     50 H14         2.6089   -6.2092    0.7740 H         1 <0>         0.1436
     51 H15         4.2544   -5.5356    2.3677 H         1 <0>         0.1303
     52 H16         3.0121   -4.4377    3.0139 H         1 <0>         0.1354
     53 H17         4.7923   -4.8546    4.6899 H         1 <0>         0.1189
     54 H18         3.2291   -5.5041    5.2428 H         1 <0>         0.0955
     55 H19         5.4808   -7.0935    3.9275 H         1 <0>         0.0945
     56 H20         4.0351   -9.0488    4.3204 H         1 <0>         0.1046
     57 H21         2.7784   -8.0008    5.0229 H         1 <0>         0.1012
     58 H22         2.2730   -8.5318    2.6532 H         1 <0>         0.1317
     59 H23         3.8383   -7.8407    2.1647 H         1 <0>         0.1277
     60 H24         5.8375   -6.4175    6.3242 H         1 <0>         0.1091
     61 H25         4.3069   -7.2245    6.7418 H         1 <0>         0.1058
     62 H26         4.0613  -12.0434    7.0346 H         1 <0>         0.1463
     63 H27         5.2478  -14.1892    7.1663 H         1 <0>         0.1431
     64 H28         7.6402  -14.3363    6.7547 H         1 <0>         0.1452
     65 H29         9.8360   -8.9969    5.4902 H         1 <0>         0.1473
     66 H30        10.9939  -11.1578    5.6291 H         1 <0>         0.1438
     67 H31         9.7934  -13.2005    6.1779 H         1 <0>         0.1454
     68 H32        -0.6014   -5.5892    2.3891 H         1 <0>         0.3897
     69 H33         1.7122   -6.3804    3.5626 H         1 <0>         0.4288
@<TRIPOS>BOND
     1    1    2 2
     2    1   37 1
     3    1   38 1
     4    2    3 1
     5    2   39 1
     6    3    4 1
     7    3   40 1
     8    3   41 1
     9    4    9 ar
    10    4    5 ar
    11    5    6 ar
    12    5   42 1
    13    6    7 ar
    14    6   43 1
    15    7    8 ar
    16    7   44 1
    17    8    9 ar
    18    8   45 1
    19    9   10 1
    20   10   11 1
    21   11   12 1
    22   11   46 1
    23   11   47 1
    24   12   13 1
    25   12   36 1
    26   12   48 1
    27   13   14 1
    28   13   49 1
    29   13   50 1
    30   14   19 1
    31   14   15 1
    32   14   69 1
    33   15   16 1
    34   15   51 1
    35   15   52 1
    36   16   17 1
    37   16   53 1
    38   16   54 1
    39   17   18 1
    40   17   20 1
    41   17   55 1
    42   18   19 1
    43   18   56 1
    44   18   57 1
    45   19   58 1
    46   19   59 1
    47   20   21 1
    48   20   60 1
    49   20   61 1
    50   21   34 am
    51   21   22 am
    52   22   23 2
    53   22   24 1
    54   24   29 ar
    55   24   25 ar
    56   25   26 ar
    57   25   62 1
    58   26   27 ar
    59   26   63 1
    60   27   28 ar
    61   27   64 1
    62   28   33 ar
    63   28   29 ar
    64   29   30 ar
    65   30   31 ar
    66   30   34 1
    67   31   32 ar
    68   31   65 1
    69   32   33 ar
    70   32   66 1
    71   33   67 1
    72   34   35 2
    73   36   68 1
@<TRIPOS>MOLECULE
CHEMBL1086005__1
   69    73     0     0     0
SMALL
USER_CHARGES

@<TRIPOS>ATOM
      1 C1         -5.5119   -9.4619   -0.0460 C.2       1 <0>        -0.1882
      2 C2         -4.3004   -8.9730   -0.1423 C.2       1 <0>        -0.1485
      3 C3         -3.2591   -9.6951   -0.9579 C.3       1 <0>        -0.0466
      4 C4         -2.6856   -8.7547   -1.9864 C.ar      1 <0>        -0.1000
      5 C5         -3.2040   -8.7309   -3.2668 C.ar      1 <0>        -0.0757
      6 C6         -2.6781   -7.8688   -4.2109 C.ar      1 <0>        -0.1435
      7 C7         -1.6324   -7.0279   -3.8764 C.ar      1 <0>        -0.0838
      8 C8         -1.1109   -7.0475   -2.5976 C.ar      1 <0>        -0.2066
      9 C9         -1.6405   -7.9081   -1.6467 C.ar      1 <0>         0.1199
     10 O1         -1.1329   -7.9253   -0.3862 O.3       1 <0>        -0.2973
     11 C10        -0.0575   -7.0264   -0.1077 C.3       1 <0>         0.0299
     12 C11         0.3780   -7.1884    1.3501 C.3       1 <0>         0.0864
     13 C12         1.6082   -6.3181    1.6146 C.3       1 <0>        -0.0432
     14 N1          2.0354   -6.4851    3.0102 N.4       1 <0>        -0.3773
     15 C13         3.1168   -5.5378    3.3060 C.3       1 <0>        -0.0038
     16 C14         3.5103   -5.6513    4.7804 C.3       1 <0>        -0.1379
     17 C15         3.9866   -7.0781    5.0676 C.3       1 <0>        -0.1147
     18 C16         2.8776   -8.0626    4.6854 C.3       1 <0>        -0.1392
     19 C17         2.5076   -7.8598    3.2146 C.3       1 <0>        -0.0110
     20 C18         4.3064   -7.2207    6.5570 C.3       1 <0>         0.0998
     21 N2          4.8741   -8.5474    6.8097 N.am      1 <0>        -0.5621
     22 C19         4.0416   -9.5628    7.1079 C.2       1 <0>         0.5743
     23 O2          2.8428   -9.3657    7.1629 O.2       1 <0>        -0.4944
     24 C20         4.5738  -10.9087    7.3670 C.ar      1 <0>        -0.1758
     25 C21         3.7529  -11.9828    7.6774 C.ar      1 <0>         0.0032
     26 C22         4.3036  -13.2367    7.9147 C.ar      1 <0>        -0.1427
     27 C23         5.6507  -13.4503    7.8511 C.ar      1 <0>        -0.0377
     28 C24         6.5175  -12.3882    7.5396 C.ar      1 <0>        -0.0793
     29 C25         5.9709  -11.1108    7.2967 C.ar      1 <0>         0.0112
     30 C26         6.8160  -10.0226    6.9815 C.ar      1 <0>        -0.1741
     31 C27         8.1857  -10.2311    6.9149 C.ar      1 <0>         0.0035
     32 C28         8.7121  -11.4947    7.1559 C.ar      1 <0>        -0.1410
     33 C29         7.9109  -12.5572    7.4616 C.ar      1 <0>        -0.0392
     34 C30         6.2088   -8.7074    6.7298 C.2       1 <0>         0.5733
     35 O3          6.9161   -7.7579    6.4523 O.2       1 <0>        -0.4897
     36 O4         -0.6865   -6.7833    2.2131 O.3       1 <0>        -0.5410
     37 H1         -6.2582   -8.9444    0.5385 H         1 <0>         0.0993
     38 H2         -5.7657  -10.3801   -0.5548 H         1 <0>         0.0981
     39 H3         -4.0479   -8.0524    0.3629 H         1 <0>         0.1062
     40 H4         -2.4624  -10.0455   -0.3017 H         1 <0>         0.0825
     41 H5         -3.7174  -10.5471   -1.4601 H         1 <0>         0.0778
     42 H6         -4.0206   -9.3867   -3.5305 H         1 <0>         0.1332
     43 H7         -3.0842   -7.8523   -5.2115 H         1 <0>         0.1294
     44 H8         -1.2230   -6.3556   -4.6158 H         1 <0>         0.1278
     45 H9         -0.2943   -6.3906   -2.3368 H         1 <0>         0.1234
     46 H10         0.7828   -7.2504   -0.7649 H         1 <0>         0.0799
     47 H11        -0.3877   -6.0015   -0.2765 H         1 <0>         0.0760
     48 H12         0.6238   -8.2329    1.5420 H         1 <0>         0.1333
     49 H13         2.4167   -6.6198    0.9486 H         1 <0>         0.1435
     50 H14         1.3593   -5.2725    1.4335 H         1 <0>         0.1393
     51 H15         3.9804   -5.7663    2.6814 H         1 <0>         0.1301
     52 H16         2.7774   -4.5231    3.0981 H         1 <0>         0.1341
     53 H17         4.3146   -4.9484    4.9976 H         1 <0>         0.1192
     54 H18         2.6474   -5.4228    5.4060 H         1 <0>         0.0947
     55 H19         4.8800   -7.2894    4.4799 H         1 <0>         0.0945
     56 H20         3.2296   -9.0834    4.8348 H         1 <0>         0.1043
     57 H21         2.0016   -7.8841    5.3091 H         1 <0>         0.1018
     58 H22         1.7183   -8.5593    2.9391 H         1 <0>         0.1327
     59 H23         3.3841   -8.0388    2.5919 H         1 <0>         0.1279
     60 H24         5.0261   -6.4559    6.8489 H         1 <0>         0.1087
     61 H25         3.3921   -7.1000    7.1381 H         1 <0>         0.1057
     62 H26         2.6834  -11.8444    7.7353 H         1 <0>         0.1466
     63 H27         3.6501  -14.0622    8.1555 H         1 <0>         0.1432
     64 H28         6.0506  -14.4355    8.0406 H         1 <0>         0.1452
     65 H29         8.8446   -9.4097    6.6749 H         1 <0>         0.1471
     66 H30         9.7809  -11.6396    7.1000 H         1 <0>         0.1437
     67 H31         8.3480  -13.5278    7.6443 H         1 <0>         0.1453
     68 H32        -0.9581   -5.8625    2.0970 H         1 <0>         0.3892
     69 H33         1.2550   -6.3039    3.6236 H         1 <0>         0.4289
@<TRIPOS>BOND
     1    1    2 2
     2    1   37 1
     3    1   38 1
     4    2    3 1
     5    2   39 1
     6    3    4 1
     7    3   40 1
     8    3   41 1
     9    4    9 ar
    10    4    5 ar
    11    5    6 ar
    12    5   42 1
    13    6    7 ar
    14    6   43 1
    15    7    8 ar
    16    7   44 1
    17    8    9 ar
    18    8   45 1
    19    9   10 1
    20   10   11 1
    21   11   12 1
    22   11   46 1
    23   11   47 1
    24   12   13 1
    25   12   36 1
    26   12   48 1
    27   13   14 1
    28   13   49 1
    29   13   50 1
    30   14   19 1
    31   14   15 1
    32   14   69 1
    33   15   16 1
    34   15   51 1
    35   15   52 1
    36   16   17 1
    37   16   53 1
    38   16   54 1
    39   17   18 1
    40   17   20 1
    41   17   55 1
    42   18   19 1
    43   18   56 1
    44   18   57 1
    45   19   58 1
    46   19   59 1
    47   20   21 1
    48   20   60 1
    49   20   61 1
    50   21   34 am
    51   21   22 am
    52   22   23 2
    53   22   24 1
    54   24   29 ar
    55   24   25 ar
    56   25   26 ar
    57   25   62 1
    58   26   27 ar
    59   26   63 1
    60   27   28 ar
    61   27   64 1
    62   28   33 ar
    63   28   29 ar
    64   29   30 ar
    65   30   31 ar
    66   30   34 1
    67   31   32 ar
    68   31   65 1
    69   32   33 ar
    70   32   66 1
    71   33   67 1
    72   34   35 2
    73   36   68 1
@<TRIPOS>MOLECULE
CHEMBL417250
   72    75     0     0     0
SMALL
USER_CHARGES

@<TRIPOS>ATOM
      1 C1         10.6263  -15.0984   -4.1097 C.ar      1 <0>        -0.0839
      2 C2         11.7414  -14.5534   -3.4983 C.ar      1 <0>        -0.1244
      3 C3         11.6825  -13.2886   -2.9505 C.ar      1 <0>        -0.0541
      4 C4         10.4944  -12.5586   -3.0140 C.ar      1 <0>        -0.1461
      5 C5          9.3731  -13.1144   -3.6323 C.ar      1 <0>        -0.0862
      6 C6          9.4456  -14.3802   -4.1760 C.ar      1 <0>        -0.1255
      7 C7         10.4239  -11.2031   -2.4287 C.2       1 <0>         0.5642
      8 O1         11.4019  -10.7217   -1.8906 O.2       1 <0>        -0.5075
      9 N1          9.2753  -10.5008   -2.4918 N.am      1 <0>        -0.6754
     10 C8          9.1783   -9.2603   -1.8534 C.ar      1 <0>         0.2096
     11 C9          7.9825   -8.8733   -1.2624 C.ar      1 <0>        -0.1683
     12 C10         7.8902   -7.6478   -0.6324 C.ar      1 <0>         0.0026
     13 C11         8.9865   -6.8061   -0.5901 C.ar      1 <0>        -0.6940
     14 C12        10.1785   -7.1881   -1.1779 C.ar      1 <0>         0.0060
     15 C13        10.2793   -8.4149   -1.8042 C.ar      1 <0>        -0.1406
     16 S1          8.8643   -5.2431    0.2142 S.o2      1 <0>         2.6896
     17 O2          9.7815   -4.3770   -0.4399 O.2       1 <0>        -0.9392
     18 O3          7.4784   -4.9470    0.3180 O.2       1 <0>        -0.9458
     19 N2          9.4226   -5.4431    1.7604 N.pl3     1 <0>        -1.0597
     20 C14         8.7573   -6.3029    2.6374 C.ar      1 <0>         0.1677
     21 C15         7.3715   -6.2696    2.7274 C.ar      1 <0>        -0.1511
     22 C16         6.7169   -7.1215    3.5952 C.ar      1 <0>        -0.0827
     23 C17         7.4393   -8.0066    4.3743 C.ar      1 <0>        -0.1213
     24 C18         8.8190   -8.0423    4.2871 C.ar      1 <0>        -0.0879
     25 C19         9.4796   -7.1972    3.4172 C.ar      1 <0>        -0.1258
     26 C20         6.7216   -8.9339    5.3208 C.3       1 <0>        -0.0994
     27 C21         6.3866  -10.2405    4.5987 C.3       1 <0>        -0.0083
     28 N3          5.6869  -11.1444    5.5214 N.4       1 <0>        -0.5040
     29 C22         5.3653  -12.3989    4.8280 C.3       1 <0>        -0.0418
     30 C23         4.6366  -13.3404    5.7890 C.3       1 <0>         0.0856
     31 H1          3.7158  -12.8684    6.1318 H         1 <0>         0.1367
     32 C24         4.3016  -14.6470    5.0669 C.3       1 <0>         0.0290
     33 O4          3.5202  -15.4794    5.9263 O.3       1 <0>        -0.3009
     34 C25         3.1355  -16.6870    5.4334 C.ar      1 <0>         0.1089
     35 C26         3.5081  -17.0634    4.1515 C.ar      1 <0>        -0.1915
     36 C27         3.1173  -18.2900    3.6508 C.ar      1 <0>        -0.1063
     37 C28         2.3527  -19.1455    4.4301 C.ar      1 <0>         0.0805
     38 C29         1.9809  -18.7694    5.7123 C.ar      1 <0>        -0.1024
     39 C30         2.3753  -17.5446    6.2146 C.ar      1 <0>        -0.1257
     40 O5          1.9672  -20.3526    3.9369 O.3       1 <0>        -0.4956
     41 O6          5.4759  -13.6183    6.9116 O.3       1 <0>        -0.5430
     42 H2         10.6790  -16.0872   -4.5409 H         1 <0>         0.1330
     43 H3         12.6599  -15.1194   -3.4495 H         1 <0>         0.1355
     44 H4         12.5535  -12.8645   -2.4732 H         1 <0>         0.1387
     45 H5          8.4508  -12.5549   -3.6845 H         1 <0>         0.1246
     46 H6          8.5787  -14.8114   -4.6546 H         1 <0>         0.1334
     47 H7          8.5160  -10.8557   -2.9799 H         1 <0>         0.4159
     48 H8          7.1257   -9.5299   -1.2957 H         1 <0>         0.1362
     49 H9          6.9606   -7.3463   -0.1726 H         1 <0>         0.1448
     50 H10        11.0328   -6.5283   -1.1434 H         1 <0>         0.1455
     51 H11        11.2117   -8.7146   -2.2592 H         1 <0>         0.1522
     52 H12        10.2116   -4.9632    2.0570 H         1 <0>         0.4325
     53 H13         6.8067   -5.5781    2.1198 H         1 <0>         0.1642
     54 H14         5.6395   -7.0961    3.6657 H         1 <0>         0.1328
     55 H15         9.3802   -8.7347    4.8970 H         1 <0>         0.1296
     56 H16        10.5568   -7.2288    3.3463 H         1 <0>         0.1358
     57 H17         7.3618   -9.1458    6.1772 H         1 <0>         0.0975
     58 H18         5.8008   -8.4618    5.6636 H         1 <0>         0.0985
     59 H19         5.7463  -10.0285    3.7424 H         1 <0>         0.1352
     60 H20         7.3073  -10.7126    4.2559 H         1 <0>         0.1337
     61 H21         6.2796  -11.3406    6.3141 H         1 <0>         0.4337
     62 H22         4.7250  -12.1870    3.9717 H         1 <0>         0.1472
     63 H23         6.2860  -12.8710    4.4853 H         1 <0>         0.1393
     64 H24         3.7359  -14.4271    4.1615 H         1 <0>         0.0818
     65 H25         5.2246  -15.1629    4.8023 H         1 <0>         0.0765
     66 H26         4.1034  -16.3973    3.5447 H         1 <0>         0.1281
     67 H27         3.4068  -18.5828    2.6524 H         1 <0>         0.1350
     68 H28         1.3852  -19.4354    6.3190 H         1 <0>         0.1419
     69 H29         2.0889  -17.2534    7.2144 H         1 <0>         0.1389
     70 H30         2.5928  -21.0682    4.1151 H         1 <0>         0.3940
     71 H31         6.3150  -14.0399    6.6806 H         1 <0>         0.3900
     72 H32         4.8346  -10.7074    5.8387 H         1 <0>         0.4317
@<TRIPOS>BOND
     1    1    6 ar
     2    1    2 ar
     3    1   42 1
     4    2    3 ar
     5    2   43 1
     6    3    4 ar
     7    3   44 1
     8    4    5 ar
     9    4    7 1
    10    5    6 ar
    11    5   45 1
    12    6   46 1
    13    7    8 2
    14    7    9 am
    15    9   10 1
    16    9   47 1
    17   10   15 ar
    18   10   11 ar
    19   11   12 ar
    20   11   48 1
    21   12   13 ar
    22   12   49 1
    23   13   14 ar
    24   13   16 1
    25   14   15 ar
    26   14   50 1
    27   15   51 1
    28   16   17 2
    29   16   18 2
    30   16   19 1
    31   19   20 1
    32   19   52 1
    33   20   25 ar
    34   20   21 ar
    35   21   22 ar
    36   21   53 1
    37   22   23 ar
    38   22   54 1
    39   23   24 ar
    40   23   26 1
    41   24   25 ar
    42   24   55 1
    43   25   56 1
    44   26   27 1
    45   26   57 1
    46   26   58 1
    47   27   28 1
    48   27   59 1
    49   27   60 1
    50   28   29 1
    51   28   61 1
    52   28   72 1
    53   29   30 1
    54   29   62 1
    55   29   63 1
    56   30   31 1
    57   30   32 1
    58   30   41 1
    59   32   33 1
    60   32   64 1
    61   32   65 1
    62   33   34 1
    63   34   39 ar
    64   34   35 ar
    65   35   36 ar
    66   35   66 1
    67   36   37 ar
    68   36   67 1
    69   37   38 ar
    70   37   40 1
    71   38   39 ar
    72   38   68 1
    73   39   69 1
    74   40   70 1
    75   41   71 1
@<TRIPOS>MOLECULE
CHEMBL417250__1
   71    74     0     0     0
SMALL
USER_CHARGES

@<TRIPOS>ATOM
      1 C1         -1.0743   -0.5357    0.5764 C.ar      1 <0>        -0.0909
      2 C2         -0.9693   -1.7779    1.1767 C.ar      1 <0>        -0.1265
      3 C3          0.2351   -2.4506    1.1710 C.ar      1 <0>        -0.0563
      4 C4          1.3493   -1.8753    0.5578 C.ar      1 <0>        -0.1367
      5 C5          1.2365   -0.6218   -0.0460 C.ar      1 <0>        -0.0862
      6 C6          0.0263    0.0401   -0.0331 C.ar      1 <0>        -0.1267
      7 C7          2.6431   -2.5902    0.5483 C.2       1 <0>         0.5585
      8 O1          2.7384   -3.6815    1.0752 O.2       1 <0>        -0.5089
      9 N1          3.7170   -2.0320   -0.0446 N.am      1 <0>        -0.6705
     10 C8          4.9632   -2.6622    0.0299 C.ar      1 <0>         0.1812
     11 C9          6.1225   -1.9030    0.1240 C.ar      1 <0>        -0.1678
     12 C10         7.3516   -2.5285    0.1979 C.ar      1 <0>        -0.0050
     13 C11         7.4289   -3.9091    0.1779 C.ar      1 <0>        -0.6326
     14 C12         6.2766   -4.6678    0.0839 C.ar      1 <0>        -0.0044
     15 C13         5.0439   -4.0487    0.0159 C.ar      1 <0>        -0.1432
     16 S1          8.9990   -4.7031    0.2719 S.o2      1 <0>         2.6117
     17 O2          8.8404   -5.9875   -0.3149 O.2       1 <0>        -1.0251
     18 O3          9.9574   -3.7645   -0.1969 O.2       1 <0>        -1.0285
     19 N2          9.3263   -4.9526    1.8759 N.2       1 <0>        -1.0820
     20 C14        10.5186   -5.5721    2.2573 C.ar      1 <0>         0.2972
     21 C15        11.4337   -5.9742    1.2926 C.ar      1 <0>        -0.2654
     22 C16        12.6119   -6.5859    1.6732 C.ar      1 <0>        -0.0472
     23 C17        12.8810   -6.7987    3.0128 C.ar      1 <0>        -0.2380
     24 C18        11.9723   -6.3996    3.9757 C.ar      1 <0>        -0.0635
     25 C19        10.7947   -5.7822    3.6024 C.ar      1 <0>        -0.1815
     26 C20        14.1673   -7.4675    3.4242 C.3       1 <0>        -0.0709
     27 C21        15.2482   -6.4060    3.6383 C.3       1 <0>        -0.0110
     28 N3         16.5021   -7.0579    4.0394 N.4       1 <0>        -0.5039
     29 C22        17.5399   -6.0387    4.2449 C.3       1 <0>        -0.0418
     30 C23        18.8458   -6.7177    4.6626 C.3       1 <0>         0.0863
     31 H1         19.1634   -7.4069    3.8802 H         1 <0>         0.1348
     32 C24        19.9267   -5.6562    4.8767 C.3       1 <0>         0.0285
     33 O4         21.1744   -6.2958    5.1528 O.3       1 <0>        -0.3012
     34 C25        22.2473   -5.4888    5.3692 C.ar      1 <0>         0.1124
     35 C26        22.0991   -4.1106    5.3220 C.ar      1 <0>        -0.1913
     36 C27        23.1889   -3.2908    5.5418 C.ar      1 <0>        -0.1051
     37 C28        24.4313   -3.8459    5.8100 C.ar      1 <0>         0.0763
     38 C29        24.5793   -5.2241    5.8581 C.ar      1 <0>        -0.1034
     39 C30        23.4886   -6.0438    5.6426 C.ar      1 <0>        -0.1279
     40 O5         25.5044   -3.0389    6.0255 O.3       1 <0>        -0.4964
     41 O6         18.6397   -7.4396    5.8785 O.3       1 <0>        -0.5445
     42 H2         -2.0206   -0.0153    0.5797 H         1 <0>         0.1293
     43 H3         -1.8321   -2.2217    1.6511 H         1 <0>         0.1324
     44 H4          0.3157   -3.4200    1.6402 H         1 <0>         0.1385
     45 H5          2.0949   -0.1711   -0.5218 H         1 <0>         0.1260
     46 H6         -0.0623    1.0100   -0.4999 H         1 <0>         0.1310
     47 H7          3.6256   -1.1932   -0.5231 H         1 <0>         0.4112
     48 H8          6.0629   -0.8248    0.1389 H         1 <0>         0.1313
     49 H9          8.2534   -1.9388    0.2710 H         1 <0>         0.1407
     50 H10         6.3404   -5.7458    0.0682 H         1 <0>         0.1407
     51 H11         4.1441   -4.6419   -0.0531 H         1 <0>         0.1446
     52 H12        11.2238   -5.8089    0.2462 H         1 <0>         0.1016
     53 H13        13.3238   -6.8988    0.9237 H         1 <0>         0.1014
     54 H14        12.1856   -6.5673    5.0211 H         1 <0>         0.1040
     55 H15        10.0875   -5.4667    4.3551 H         1 <0>         0.1166
     56 H16        14.0101   -8.0181    4.3517 H         1 <0>         0.0806
     57 H17        14.4849   -8.1567    2.6418 H         1 <0>         0.0797
     58 H18        15.4055   -5.8553    2.7109 H         1 <0>         0.1312
     59 H19        14.9307   -5.7167    4.4207 H         1 <0>         0.1310
     60 H20        16.3565   -7.5676    4.8979 H         1 <0>         0.4301
     61 H21        17.6971   -5.4881    3.3175 H         1 <0>         0.1454
     62 H22        17.2223   -5.3494    5.0273 H         1 <0>         0.1381
     63 H23        20.0215   -5.0476    3.9774 H         1 <0>         0.0827
     64 H24        19.6502   -5.0206    5.7180 H         1 <0>         0.0770
     65 H25        21.1316   -3.6783    5.1131 H         1 <0>         0.1303
     66 H26        23.0736   -2.2176    5.5043 H         1 <0>         0.1348
     67 H27        25.5468   -5.6564    6.0667 H         1 <0>         0.1401
     68 H28        23.6031   -7.1170    5.6837 H         1 <0>         0.1382
     69 H29        25.6330   -2.7946    6.9522 H         1 <0>         0.3922
     70 H30        18.3550   -6.8880    6.6200 H         1 <0>         0.3893
     71 H31        16.7961   -7.6959    3.3151 H         1 <0>         0.4278
@<TRIPOS>BOND
     1    1    6 ar
     2    1    2 ar
     3    1   42 1
     4    2    3 ar
     5    2   43 1
     6    3    4 ar
     7    3   44 1
     8    4    5 ar
     9    4    7 1
    10    5    6 ar
    11    5   45 1
    12    6   46 1
    13    7    8 2
    14    7    9 am
    15    9   10 1
    16    9   47 1
    17   10   15 ar
    18   10   11 ar
    19   11   12 ar
    20   11   48 1
    21   12   13 ar
    22   12   49 1
    23   13   14 ar
    24   13   16 1
    25   14   15 ar
    26   14   50 1
    27   15   51 1
    28   16   17 2
    29   16   18 2
    30   16   19 1
    31   19   20 1
    32   20   25 ar
    33   20   21 ar
    34   21   22 ar
    35   21   52 1
    36   22   23 ar
    37   22   53 1
    38   23   24 ar
    39   23   26 1
    40   24   25 ar
    41   24   54 1
    42   25   55 1
    43   26   27 1
    44   26   56 1
    45   26   57 1
    46   27   28 1
    47   27   58 1
    48   27   59 1
    49   28   29 1
    50   28   60 1
    51   28   71 1
    52   29   30 1
    53   29   61 1
    54   29   62 1
    55   30   31 1
    56   30   32 1
    57   30   41 1
    58   32   33 1
    59   32   63 1
    60   32   64 1
    61   33   34 1
    62   34   39 ar
    63   34   35 ar
    64   35   36 ar
    65   35   65 1
    66   36   37 ar
    67   36   66 1
    68   37   38 ar
    69   37   40 1
    70   38   39 ar
    71   38   67 1
    72   39   68 1
    73   40   69 1
    74   41   70 1
@<TRIPOS>MOLECULE
CHEMBL1085010
   64    66     0     0     0
SMALL
USER_CHARGES

@<TRIPOS>ATOM
      1 C1         -0.0187    1.5258    0.0104 C.3       1 <0>        -0.1457
      2 C2          0.0021   -0.0041    0.0020 C.3       1 <0>        -0.0506
      3 C3          0.7421   -0.5109    1.2415 C.3       1 <0>        -0.1452
      4 C4         -1.4117   -0.5257    0.0127 C.ar      1 <0>        -0.0968
      5 C5         -2.2592   -0.2048    1.0557 C.ar      1 <0>        -0.0766
      6 C6         -3.5561   -0.6834    1.0663 C.ar      1 <0>        -0.1434
      7 C7         -4.0087   -1.4838    0.0335 C.ar      1 <0>        -0.0851
      8 C8         -3.1656   -1.8071   -1.0117 C.ar      1 <0>        -0.2060
      9 C9         -1.8651   -1.3237   -1.0273 C.ar      1 <0>         0.1176
     10 O1         -1.0353   -1.6358   -2.0574 O.3       1 <0>        -0.2991
     11 C10        -1.5698   -2.4619   -3.0937 C.3       1 <0>         0.0301
     12 C11        -0.4971   -2.7036   -4.1575 C.3       1 <0>         0.0864
     13 C12        -1.1042   -3.4825   -5.3261 C.3       1 <0>        -0.0432
     14 N1         -0.0743   -3.7146   -6.3476 N.4       1 <0>        -0.3771
     15 C13         0.3548   -2.4279   -6.9088 C.3       1 <0>        -0.0105
     16 C14         1.4846   -2.6574   -7.9150 C.3       1 <0>        -0.1370
     17 C15         0.9813   -3.5648   -9.0412 C.3       1 <0>        -0.1131
     18 C16         0.4674   -4.8748   -8.4368 C.3       1 <0>        -0.1396
     19 C17        -0.6247   -4.5632   -7.4113 C.3       1 <0>        -0.0051
     20 C18         2.1280   -3.8631  -10.0091 C.3       1 <0>         0.0944
     21 N2          1.6187   -4.6313  -11.1478 N.am      1 <0>        -0.5688
     22 C19         1.6145   -5.9706  -11.0713 C.2       1 <0>         0.5228
     23 O2          2.0386   -6.5102  -10.0720 O.2       1 <0>        -0.4995
     24 C20         1.0929   -6.8167  -12.2025 C.3       1 <0>        -0.1456
     25 C21         1.3011   -6.0716  -13.5254 C.3       1 <0>        -0.1285
     26 C22         0.6279   -4.6988  -13.4234 C.3       1 <0>        -0.1447
     27 C23         1.1698   -3.9677  -12.2236 C.2       1 <0>         0.5214
     28 O3          1.2049   -2.7560  -12.2319 O.2       1 <0>        -0.4931
     29 O4          0.5761   -3.4568   -3.5893 O.3       1 <0>        -0.5420
     30 H1          1.0039    1.9031    0.0027 H         1 <0>         0.0607
     31 H2         -0.5459    1.8868   -0.8726 H         1 <0>         0.0536
     32 H3         -0.5289    1.8773    0.9072 H         1 <0>         0.0582
     33 H4          0.5123   -0.3556   -0.8948 H         1 <0>         0.0823
     34 H5          0.7568   -1.6008    1.2356 H         1 <0>         0.0543
     35 H6          1.7647   -0.1336    1.2338 H         1 <0>         0.0607
     36 H7          0.2319   -0.1594    2.1383 H         1 <0>         0.0578
     37 H8         -1.9081    0.4202    1.8635 H         1 <0>         0.1327
     38 H9         -4.2168   -0.4320    1.8828 H         1 <0>         0.1287
     39 H10        -5.0222   -1.8568    0.0443 H         1 <0>         0.1272
     40 H11        -3.5195   -2.4323   -1.8181 H         1 <0>         0.1227
     41 H12        -1.8844   -3.4163   -2.6715 H         1 <0>         0.0756
     42 H13        -2.4271   -1.9654   -3.5483 H         1 <0>         0.0799
     43 H14        -0.1190   -1.7463   -4.5163 H         1 <0>         0.1342
     44 H15        -1.4822   -4.4398   -4.9673 H         1 <0>         0.1388
     45 H16        -1.9228   -2.9080   -5.7595 H         1 <0>         0.1438
     46 H17        -0.4874   -1.9521   -7.4111 H         1 <0>         0.1303
     47 H18         0.7097   -1.7820   -6.1057 H         1 <0>         0.1354
     48 H19         1.8005   -1.7011   -8.3318 H         1 <0>         0.1184
     49 H20         2.3275   -3.1329   -7.4136 H         1 <0>         0.0950
     50 H21         0.1717   -3.0677   -9.5756 H         1 <0>         0.0934
     51 H22         0.0563   -5.5034   -9.2267 H         1 <0>         0.1037
     52 H23         1.2893   -5.3963   -7.9463 H         1 <0>         0.1002
     53 H24        -0.9929   -5.4937   -6.9792 H         1 <0>         0.1317
     54 H25        -1.4460   -4.0419   -7.9029 H         1 <0>         0.1277
     55 H26         2.5559   -2.9260  -10.3652 H         1 <0>         0.1064
     56 H27         2.8961   -4.4411   -9.4952 H         1 <0>         0.1032
     57 H28         1.6330   -7.7631  -12.2286 H         1 <0>         0.1191
     58 H29         0.0298   -7.0068  -12.0550 H         1 <0>         0.1129
     59 H30         2.3678   -5.9435  -13.7093 H         1 <0>         0.0815
     60 H31         0.8522   -6.6398  -14.3401 H         1 <0>         0.1021
     61 H32         0.8340   -4.1240  -14.3263 H         1 <0>         0.1196
     62 H33        -0.4485   -4.8284  -13.3108 H         1 <0>         0.1132
     63 H34         0.3120   -4.3224   -3.2487 H         1 <0>         0.3898
     64 H35         0.7178   -4.1763   -5.9263 H         1 <0>         0.4288
@<TRIPOS>BOND
     1    1    2 1
     2    1   30 1
     3    1   31 1
     4    1   32 1
     5    2    3 1
     6    2    4 1
     7    2   33 1
     8    3   34 1
     9    3   35 1
    10    3   36 1
    11    4    9 ar
    12    4    5 ar
    13    5    6 ar
    14    5   37 1
    15    6    7 ar
    16    6   38 1
    17    7    8 ar
    18    7   39 1
    19    8    9 ar
    20    8   40 1
    21    9   10 1
    22   10   11 1
    23   11   12 1
    24   11   41 1
    25   11   42 1
    26   12   13 1
    27   12   29 1
    28   12   43 1
    29   13   14 1
    30   13   44 1
    31   13   45 1
    32   14   19 1
    33   14   15 1
    34   14   64 1
    35   15   16 1
    36   15   46 1
    37   15   47 1
    38   16   17 1
    39   16   48 1
    40   16   49 1
    41   17   18 1
    42   17   20 1
    43   17   50 1
    44   18   19 1
    45   18   51 1
    46   18   52 1
    47   19   53 1
    48   19   54 1
    49   20   21 1
    50   20   55 1
    51   20   56 1
    52   21   27 am
    53   21   22 am
    54   22   23 2
    55   22   24 1
    56   24   25 1
    57   24   57 1
    58   24   58 1
    59   25   26 1
    60   25   59 1
    61   25   60 1
    62   26   27 1
    63   26   61 1
    64   26   62 1
    65   27   28 2
    66   29   63 1
@<TRIPOS>MOLECULE
CHEMBL1085010__1
   64    66     0     0     0
SMALL
USER_CHARGES

@<TRIPOS>ATOM
      1 C1         -3.2725   -8.7141   -0.1962 C.3       1 <0>        -0.1453
      2 C2         -3.8158   -8.2153   -1.5366 C.3       1 <0>        -0.0508
      3 C3         -4.8115   -9.2342   -2.0944 C.3       1 <0>        -0.1454
      4 C4         -4.5096   -6.8925   -1.3366 C.ar      1 <0>        -0.0967
      5 C5         -5.5890   -6.8007   -0.4791 C.ar      1 <0>        -0.0766
      6 C6         -6.2262   -5.5876   -0.2955 C.ar      1 <0>        -0.1434
      7 C7         -5.7850   -4.4633   -0.9689 C.ar      1 <0>        -0.0851
      8 C8         -4.7061   -4.5498   -1.8269 C.ar      1 <0>        -0.2060
      9 C9         -4.0615   -5.7650   -2.0089 C.ar      1 <0>         0.1175
     10 O1         -2.9962   -5.8515   -2.8483 O.3       1 <0>        -0.2990
     11 C10        -2.5900   -4.6501   -3.5069 C.3       1 <0>         0.0303
     12 C11        -1.3849   -4.9423   -4.4031 C.3       1 <0>         0.0864
     13 C12        -1.0275   -3.6875   -5.2023 C.3       1 <0>        -0.0432
     14 N1          0.1201   -3.9724   -6.0739 N.4       1 <0>        -0.3774
     15 C13         0.5589   -2.7316   -6.7239 C.3       1 <0>        -0.0038
     16 C14         1.8038   -3.0072   -7.5699 C.3       1 <0>        -0.1385
     17 C15         1.4680   -4.0531   -8.6368 C.3       1 <0>        -0.1133
     18 C16         0.9412   -5.3168   -7.9508 C.3       1 <0>        -0.1380
     19 C17        -0.2718   -4.9557   -7.0907 C.3       1 <0>        -0.0114
     20 C18         2.7282   -4.3921   -9.4355 C.3       1 <0>         0.0946
     21 N2          2.3824   -5.3014  -10.5308 N.am      1 <0>        -0.5688
     22 C19         2.4226   -6.6235  -10.3077 C.2       1 <0>         0.5222
     23 O2          2.7515   -7.0321   -9.2147 O.2       1 <0>        -0.4981
     24 C20         2.0668   -7.6101  -11.3884 C.3       1 <0>        -0.1456
     25 C21         2.3942   -6.9989  -12.7550 C.3       1 <0>        -0.1284
     26 C22         1.6599   -5.6596  -12.8791 C.3       1 <0>        -0.1448
     27 C23         2.0326   -4.7790  -11.7158 C.2       1 <0>         0.5218
     28 O3          2.0205   -3.5748  -11.8541 O.2       1 <0>        -0.4939
     29 O4         -0.2710   -5.3249   -3.5938 O.3       1 <0>        -0.5415
     30 H1         -2.7707   -9.6708   -0.3409 H         1 <0>         0.0607
     31 H2         -2.5631   -7.9881    0.2012 H         1 <0>         0.0543
     32 H3         -4.0967   -8.8387    0.5062 H         1 <0>         0.0578
     33 H4         -2.9916   -8.0907   -2.2390 H         1 <0>         0.0823
     34 H5         -5.1986   -8.8789   -3.0493 H         1 <0>         0.0535
     35 H6         -4.3097  -10.1910   -2.2390 H         1 <0>         0.0607
     36 H7         -5.6357   -9.3588   -1.3920 H         1 <0>         0.0582
     37 H8         -5.9355   -7.6773    0.0480 H         1 <0>         0.1327
     38 H9         -7.0702   -5.5181    0.3747 H         1 <0>         0.1286
     39 H10        -6.2847   -3.5169   -0.8241 H         1 <0>         0.1273
     40 H11        -4.3619   -3.6714   -2.3527 H         1 <0>         0.1227
     41 H12        -3.4123   -4.2733   -4.1151 H         1 <0>         0.0798
     42 H13        -2.3164   -3.9023   -2.7625 H         1 <0>         0.0758
     43 H14        -1.6306   -5.7525   -5.0896 H         1 <0>         0.1332
     44 H15        -1.8810   -3.3892   -5.8112 H         1 <0>         0.1436
     45 H16        -0.7710   -2.8804   -4.5160 H         1 <0>         0.1395
     46 H17        -0.2391   -2.3556   -7.3642 H         1 <0>         0.1301
     47 H18         0.7944   -1.9872   -5.9634 H         1 <0>         0.1341
     48 H19         2.1269   -2.0851   -8.0531 H         1 <0>         0.1187
     49 H20         2.6025   -3.3830   -6.9304 H         1 <0>         0.0942
     50 H21         0.7053   -3.6577   -9.3076 H         1 <0>         0.0934
     51 H22         0.6477   -6.0457   -8.7062 H         1 <0>         0.1034
     52 H23         1.7220   -5.7406   -7.3192 H         1 <0>         0.1009
     53 H24        -0.6496   -5.8532   -6.6009 H         1 <0>         0.1328
     54 H25        -1.0521   -4.5323   -7.7232 H         1 <0>         0.1279
     55 H26         3.1563   -3.4769   -9.8445 H         1 <0>         0.1060
     56 H27         3.4553   -4.8722   -8.7805 H         1 <0>         0.1031
     57 H28         2.6435   -8.5247  -11.2508 H         1 <0>         0.1192
     58 H29         1.0022   -7.8383  -11.3370 H         1 <0>         0.1131
     59 H30         3.4690   -6.8358  -12.8350 H         1 <0>         0.0814
     60 H31         2.0636   -7.6723  -13.5457 H         1 <0>         0.1021
     61 H32         1.9443   -5.1734  -13.8123 H         1 <0>         0.1195
     62 H33         0.5837   -5.8321  -12.8704 H         1 <0>         0.1133
     63 H34         0.0033   -4.6501   -2.9579 H         1 <0>         0.3896
     64 H35         0.8769   -4.3456   -5.5206 H         1 <0>         0.4289
@<TRIPOS>BOND
     1    1    2 1
     2    1   30 1
     3    1   31 1
     4    1   32 1
     5    2    3 1
     6    2    4 1
     7    2   33 1
     8    3   34 1
     9    3   35 1
    10    3   36 1
    11    4    9 ar
    12    4    5 ar
    13    5    6 ar
    14    5   37 1
    15    6    7 ar
    16    6   38 1
    17    7    8 ar
    18    7   39 1
    19    8    9 ar
    20    8   40 1
    21    9   10 1
    22   10   11 1
    23   11   12 1
    24   11   41 1
    25   11   42 1
    26   12   13 1
    27   12   29 1
    28   12   43 1
    29   13   14 1
    30   13   44 1
    31   13   45 1
    32   14   19 1
    33   14   15 1
    34   14   64 1
    35   15   16 1
    36   15   46 1
    37   15   47 1
    38   16   17 1
    39   16   48 1
    40   16   49 1
    41   17   18 1
    42   17   20 1
    43   17   50 1
    44   18   19 1
    45   18   51 1
    46   18   52 1
    47   19   53 1
    48   19   54 1
    49   20   21 1
    50   20   55 1
    51   20   56 1
    52   21   27 am
    53   21   22 am
    54   22   23 2
    55   22   24 1
    56   24   25 1
    57   24   57 1
    58   24   58 1
    59   25   26 1
    60   25   59 1
    61   25   60 1
    62   26   27 1
    63   26   61 1
    64   26   62 1
    65   27   28 2
    66   29   63 1
@<TRIPOS>MOLECULE
CHEMBL125168
   55    57     0     0     0
SMALL
USER_CHARGES

@<TRIPOS>ATOM
      1 C1          0.8236    0.9777    3.0323 C.ar      1 <0>        -0.0941
      2 C2          2.1225    0.8947    2.5744 C.ar      1 <0>        -0.1323
      3 C3          2.9603    2.0086    2.6546 C.ar      1 <0>         0.1108
      4 C4          2.4768    3.2003    3.1985 C.ar      1 <0>        -0.0967
      5 C5          1.1757    3.2697    3.6527 C.ar      1 <0>        -0.0827
      6 C6          0.3506    2.1611    3.5700 C.ar      1 <0>        -0.0956
      7 I1          0.4475    5.0563    4.4693 I         1 <0>        -0.0316
      8 N1          4.2508    1.9326    2.2022 N.2       1 <0>        -0.5689
      9 C7          4.5121    2.1195    0.9301 C.2       1 <0>         0.6510
     10 N2          3.4813    2.2999    0.0346 N.pl3     1 <0>        -0.6176
     11 C8          3.7522    2.5971   -1.2593 C.1       1 <0>         0.3870
     12 N3          3.9793    2.8463   -2.3441 N.1       1 <0>        -0.3730
     13 N4          5.8138    2.1354    0.4914 N.pl3     1 <0>        -0.6519
     14 C9          6.8538    1.8359    1.3770 C.ar      1 <0>         0.1862
     15 C10         6.6370    0.9633    2.4356 C.ar      1 <0>        -0.1100
     16 C11         7.6663    0.6693    3.3081 C.ar      1 <0>        -0.0856
     17 C12         8.9119    1.2426    3.1287 C.ar      1 <0>        -0.1281
     18 C13         9.1311    2.1118    2.0757 C.ar      1 <0>        -0.0842
     19 C14         8.1075    2.4060    1.1965 C.ar      1 <0>        -0.1448
     20 C15        10.0326    0.9199    4.0830 C.3       1 <0>        -0.0974
     21 C16        10.8027   -0.2993    3.5717 C.3       1 <0>        -0.0075
     22 N5         11.8952   -0.6139    4.5020 N.4       1 <0>        -0.5057
     23 C17        12.6346   -1.7845    4.0110 C.3       1 <0>        -0.0424
     24 C18        13.7725   -2.1122    4.9799 C.3       1 <0>         0.1414
     25 H1         13.3596   -2.3301    5.9649 H         1 <0>         0.1339
     26 C19        14.5309   -3.3130    4.4763 C.ar      1 <0>        -0.2003
     27 C20        14.2161   -4.5842    4.9323 C.ar      1 <0>        -0.0549
     28 C21        14.9405   -5.6595    4.4414 C.ar      1 <0>        -0.1642
     29 C22        15.9453   -5.4304    3.5203 C.ar      1 <0>         0.1223
     30 N6         16.2175   -4.2075    3.1093 N.ar      1 <0>        -0.4749
     31 C23        15.5451   -3.1620    3.5500 C.ar      1 <0>         0.1171
     32 O1         14.6573   -0.9938    5.0712 O.3       1 <0>        -0.5459
     33 H2          0.1733    0.1179    2.9666 H         1 <0>         0.1362
     34 H3          2.4905   -0.0301    2.1551 H         1 <0>         0.1300
     35 H4          3.1198    4.0656    3.2638 H         1 <0>         0.1309
     36 H5         -0.6671    2.2207    3.9266 H         1 <0>         0.1330
     37 H6          2.5615    2.2141    0.3302 H         1 <0>         0.4470
     38 H7          6.0116    2.3543   -0.4326 H         1 <0>         0.4221
     39 H8          5.6643    0.5154    2.5765 H         1 <0>         0.1538
     40 H9          7.4983   -0.0089    4.1317 H         1 <0>         0.1274
     41 H10        10.1049    2.5582    1.9386 H         1 <0>         0.1286
     42 H11         8.2805    3.0817    0.3720 H         1 <0>         0.1311
     43 H12        10.7076    1.7730    4.1526 H         1 <0>         0.0956
     44 H13         9.6197    0.7020    5.0680 H         1 <0>         0.0959
     45 H14        10.1278   -1.1524    3.5021 H         1 <0>         0.1335
     46 H15        11.2156   -0.0814    2.5867 H         1 <0>         0.1330
     47 H16        12.5200    0.1758    4.5664 H         1 <0>         0.4325
     48 H17        11.9596   -2.6376    3.9414 H         1 <0>         0.1445
     49 H18        13.0475   -1.5666    3.0261 H         1 <0>         0.1374
     50 H19        13.4257   -4.7330    5.6531 H         1 <0>         0.1412
     51 H20        14.7227   -6.6634    4.7748 H         1 <0>         0.1472
     52 H21        16.5142   -6.2627    3.1330 H         1 <0>         0.1671
     53 H22        15.7932   -2.1758    3.1862 H         1 <0>         0.1530
     54 H23        15.0624   -0.7431    4.2297 H         1 <0>         0.3899
     55 H24        11.5130   -0.8156    5.4137 H         1 <0>         0.4297
@<TRIPOS>BOND
     1    1    6 ar
     2    1    2 ar
     3    1   33 1
     4    2    3 ar
     5    2   34 1
     6    3    4 ar
     7    3    8 1
     8    4    5 ar
     9    4   35 1
    10    5    6 ar
    11    5    7 1
    12    6   36 1
    13    8    9 2
    14    9   10 1
    15    9   13 1
    16   10   11 1
    17   10   37 1
    18   11   12 3
    19   13   14 1
    20   13   38 1
    21   14   19 ar
    22   14   15 ar
    23   15   16 ar
    24   15   39 1
    25   16   17 ar
    26   16   40 1
    27   17   18 ar
    28   17   20 1
    29   18   19 ar
    30   18   41 1
    31   19   42 1
    32   20   21 1
    33   20   43 1
    34   20   44 1
    35   21   22 1
    36   21   45 1
    37   21   46 1
    38   22   23 1
    39   22   47 1
    40   22   55 1
    41   23   24 1
    42   23   48 1
    43   23   49 1
    44   24   25 1
    45   24   26 1
    46   24   32 1
    47   26   31 ar
    48   26   27 ar
    49   27   28 ar
    50   27   50 1
    51   28   29 ar
    52   28   51 1
    53   29   30 ar
    54   29   52 1
    55   30   31 ar
    56   31   53 1
    57   32   54 1
@<TRIPOS>MOLECULE
CHEMBL332010
   59    61     0     0     0
SMALL
USER_CHARGES

@<TRIPOS>ATOM
      1 C1          2.7607   -4.5419    2.2730 C.ar      1 <0>        -0.1079
      2 C2          4.0461   -4.0557    2.4008 C.ar      1 <0>        -0.0938
      3 C3          4.4173   -2.8826    1.7419 C.ar      1 <0>        -0.1177
      4 C4          3.4855   -2.2054    0.9551 C.ar      1 <0>        -0.0823
      5 C5          2.1971   -2.7022    0.8328 C.ar      1 <0>         0.1443
      6 C6          1.8374   -3.8712    1.4935 C.ar      1 <0>        -0.0873
      7 N1          1.2589   -2.0267    0.0455 N.pl3     1 <0>        -0.6440
      8 C7          0.2675   -2.7290   -0.5958 C.2       1 <0>         0.6634
      9 N2          0.1276   -4.0149   -0.3765 N.2       1 <0>        -0.5837
     10 C8         -0.9692   -4.6768   -0.8610 C.ar      1 <0>         0.1444
     11 C9         -2.2406   -4.3865   -0.3621 C.ar      1 <0>        -0.1636
     12 C10        -3.3410   -5.0570   -0.8546 C.ar      1 <0>        -0.0838
     13 C11        -3.1869   -6.0156   -1.8404 C.ar      1 <0>        -0.1317
     14 C12        -1.9299   -6.3086   -2.3389 C.ar      1 <0>        -0.0846
     15 C13        -0.8217   -5.6409   -1.8601 C.ar      1 <0>        -0.1264
     16 C14        -4.3936   -6.7443   -2.3731 C.3       1 <0>        -0.0976
     17 C15        -4.9676   -5.9766   -3.5657 C.3       1 <0>        -0.0079
     18 N3         -6.1439   -6.6870   -4.0850 N.4       1 <0>        -0.5057
     19 C16        -6.6950   -5.9499   -5.2300 C.3       1 <0>        -0.0426
     20 C17        -7.9201   -6.6897   -5.7709 C.3       1 <0>         0.1415
     21 H1         -8.6753   -6.7627   -4.9883 H         1 <0>         0.1338
     22 C18        -8.4855   -5.9336   -6.9455 C.ar      1 <0>        -0.2007
     23 C19        -9.5201   -5.0280   -6.7654 C.ar      1 <0>        -0.0549
     24 C20       -10.0087   -4.3553   -7.8746 C.ar      1 <0>        -0.1641
     25 C21        -9.4523   -4.6077   -9.1145 C.ar      1 <0>         0.1227
     26 N4         -8.4694   -5.4763   -9.2485 N.ar      1 <0>        -0.4748
     27 C22        -7.9756   -6.1298   -8.2148 C.ar      1 <0>         0.1172
     28 O1         -7.5383   -8.0020   -6.1883 O.3       1 <0>        -0.5459
     29 N5         -0.5794   -2.0830   -1.4689 N.pl3     1 <0>        -0.6177
     30 C23        -0.3503   -0.7901   -1.8035 C.1       1 <0>         0.3834
     31 N6         -0.1582    0.2938   -2.0839 N.1       1 <0>        -0.3669
     32 C24         5.7934   -2.3590    1.8778 C.2       1 <0>         0.5628
     33 O2          6.1144   -1.3372    1.3031 O.2       1 <0>        -0.5368
     34 N7          6.6918   -3.0148    2.6389 N.am      1 <0>        -0.8481
     35 H2          2.4767   -5.4521    2.7804 H         1 <0>         0.1357
     36 H3          4.7647   -4.5829    3.0108 H         1 <0>         0.1302
     37 H4          3.7668   -1.2970    0.4432 H         1 <0>         0.1399
     38 H5          0.8332   -4.2566    1.3971 H         1 <0>         0.1627
     39 H6          1.3082   -1.0625   -0.0477 H         1 <0>         0.4229
     40 H7         -2.3621   -3.6389    0.4078 H         1 <0>         0.1282
     41 H8         -4.3249   -4.8334   -0.4696 H         1 <0>         0.1254
     42 H9         -1.8166   -7.0582   -3.1081 H         1 <0>         0.1264
     43 H10         0.1583   -5.8669   -2.2538 H         1 <0>         0.1321
     44 H11        -4.1024   -7.7453   -2.6915 H         1 <0>         0.0960
     45 H12        -5.1488   -6.8173   -1.5905 H         1 <0>         0.0954
     46 H13        -5.2588   -4.9757   -3.2473 H         1 <0>         0.1328
     47 H14        -4.2124   -5.9037   -4.3483 H         1 <0>         0.1331
     48 H15        -5.8743   -7.6135   -4.3797 H         1 <0>         0.4328
     49 H16        -6.9862   -4.9489   -4.9116 H         1 <0>         0.1443
     50 H17        -5.9398   -5.8769   -6.0126 H         1 <0>         0.1375
     51 H18        -9.9356   -4.8513   -5.7843 H         1 <0>         0.1410
     52 H19       -10.8141   -3.6432   -7.7714 H         1 <0>         0.1473
     53 H20        -9.8273   -4.0878   -9.9837 H         1 <0>         0.1672
     54 H21        -7.1666   -6.8298   -8.3627 H         1 <0>         0.1530
     55 H22        -6.8675   -8.0136   -6.8847 H         1 <0>         0.3900
     56 H23        -1.3400   -2.5537   -1.8444 H         1 <0>         0.4424
     57 H24         6.4356   -3.8303    3.0975 H         1 <0>         0.4021
     58 H25         7.5945   -2.6714    2.7281 H         1 <0>         0.4088
     59 H26        -6.8430   -6.7545   -3.3605 H         1 <0>         0.4297
@<TRIPOS>BOND
     1    1    6 ar
     2    1    2 ar
     3    1   35 1
     4    2    3 ar
     5    2   36 1
     6    3    4 ar
     7    3   32 1
     8    4    5 ar
     9    4   37 1
    10    5    6 ar
    11    5    7 1
    12    6   38 1
    13    7    8 1
    14    7   39 1
    15    8    9 2
    16    8   29 1
    17    9   10 1
    18   10   15 ar
    19   10   11 ar
    20   11   12 ar
    21   11   40 1
    22   12   13 ar
    23   12   41 1
    24   13   14 ar
    25   13   16 1
    26   14   15 ar
    27   14   42 1
    28   15   43 1
    29   16   17 1
    30   16   44 1
    31   16   45 1
    32   17   18 1
    33   17   46 1
    34   17   47 1
    35   18   19 1
    36   18   48 1
    37   18   59 1
    38   19   20 1
    39   19   49 1
    40   19   50 1
    41   20   21 1
    42   20   22 1
    43   20   28 1
    44   22   27 ar
    45   22   23 ar
    46   23   24 ar
    47   23   51 1
    48   24   25 ar
    49   24   52 1
    50   25   26 ar
    51   25   53 1
    52   26   27 ar
    53   27   54 1
    54   28   55 1
    55   29   30 1
    56   29   56 1
    57   30   31 3
    58   32   33 2
    59   32   34 am
    60   34   57 1
    61   34   58 1
@<TRIPOS>MOLECULE
CHEMBL439794
   61    64     0     0     0
SMALL
USER_CHARGES

@<TRIPOS>ATOM
      1 C1          4.3335   -3.7017    5.3095 C.ar      1 <0>        -0.1073
      2 C2          5.5979   -3.3078    4.8776 C.ar      1 <0>        -0.1244
      3 C3          5.7712   -2.7254    3.6575 C.ar      1 <0>        -0.0858
      4 C4          4.6640   -2.5196    2.8256 C.ar      1 <0>        -0.0481
      5 C5          3.3768   -2.9189    3.2617 C.ar      1 <0>        -0.0327
      6 C6          3.2356   -3.5165    4.5261 C.ar      1 <0>        -0.1115
      7 C7          2.2685   -2.7111    2.4239 C.ar      1 <0>        -0.1203
      8 C8          2.4211   -2.1319    1.2016 C.ar      1 <0>        -0.0923
      9 C9          3.6632   -1.7252    0.7338 C.ar      1 <0>        -0.1982
     10 C10         4.8022   -1.8996    1.5097 C.ar      1 <0>         0.1410
     11 N1          6.0248   -1.5006    1.0522 N.2       1 <0>        -0.5643
     12 C11         6.1450   -0.3639    0.4052 C.2       1 <0>         0.6459
     13 N2          5.0841    0.5117    0.3489 N.pl3     1 <0>        -0.6194
     14 C12         5.1617    1.6213   -0.4250 C.1       1 <0>         0.3866
     15 N3          5.2267    2.5515   -1.0738 N.1       1 <0>        -0.3743
     16 N4          7.3289   -0.0487   -0.2150 N.pl3     1 <0>        -0.6517
     17 C13         8.4499   -0.8656   -0.0381 C.ar      1 <0>         0.1794
     18 C14         8.2984   -2.2425    0.0651 C.ar      1 <0>        -0.1032
     19 C15         9.4077   -3.0465    0.2393 C.ar      1 <0>        -0.0893
     20 C16        10.6681   -2.4822    0.3114 C.ar      1 <0>        -0.1235
     21 C17        10.8224   -1.1117    0.2094 C.ar      1 <0>        -0.0880
     22 C18         9.7178   -0.3025    0.0290 C.ar      1 <0>        -0.1399
     23 C19        11.8763   -3.3626    0.5020 C.3       1 <0>        -0.0979
     24 C20        12.4218   -3.7828   -0.8643 C.3       1 <0>        -0.0077
     25 N5         13.5994   -4.6410   -0.6786 N.4       1 <0>        -0.5056
     26 C21        14.1231   -5.0445   -1.9904 C.3       1 <0>        -0.0425
     27 C22        15.3497   -5.9383   -1.7969 C.3       1 <0>         0.1414
     28 H1         15.0671   -6.8254   -1.2300 H         1 <0>         0.1339
     29 C23        15.8870   -6.3523   -3.1427 C.ar      1 <0>        -0.2003
     30 C24        15.5052   -7.5585   -3.7103 C.ar      1 <0>        -0.0549
     31 C25        16.0247   -7.8981   -4.9499 C.ar      1 <0>        -0.1641
     32 C26        16.8998   -7.0292   -5.5744 C.ar      1 <0>         0.1224
     33 N6         17.2410   -5.8903   -5.0045 N.ar      1 <0>        -0.4750
     34 C27        16.7618   -5.5320   -3.8292 C.ar      1 <0>         0.1171
     35 O1         16.3564   -5.2177   -1.0832 O.3       1 <0>        -0.5460
     36 H2          4.2231   -4.1652    6.2788 H         1 <0>         0.1248
     37 H3          6.4527   -3.4658    5.5185 H         1 <0>         0.1225
     38 H4          6.7568   -2.4242    3.3345 H         1 <0>         0.1289
     39 H5          2.2615   -3.8273    4.8741 H         1 <0>         0.1302
     40 H6          1.2855   -3.0143    2.7528 H         1 <0>         0.1281
     41 H7          1.5515   -1.9851    0.5781 H         1 <0>         0.1247
     42 H8          3.7447   -1.2692   -0.2418 H         1 <0>         0.1240
     43 H9          4.2810    0.3343    0.8631 H         1 <0>         0.4501
     44 H10         7.3875    0.7406   -0.7758 H         1 <0>         0.4222
     45 H11         7.3143   -2.6838    0.0096 H         1 <0>         0.1559
     46 H12         9.2907   -4.1171    0.3196 H         1 <0>         0.1278
     47 H13        11.8080   -0.6741    0.2669 H         1 <0>         0.1285
     48 H14         9.8394    0.7673   -0.0550 H         1 <0>         0.1309
     49 H15        12.6442   -2.8129    1.0463 H         1 <0>         0.0958
     50 H16        11.5936   -4.2497    1.0688 H         1 <0>         0.0963
     51 H17        11.6539   -4.3325   -1.4087 H         1 <0>         0.1338
     52 H18        12.7044   -2.8957   -1.4312 H         1 <0>         0.1332
     53 H19        14.3103   -4.1322   -0.1747 H         1 <0>         0.4325
     54 H20        13.3553   -5.5941   -2.5348 H         1 <0>         0.1446
     55 H21        14.4058   -4.1574   -2.5573 H         1 <0>         0.1375
     56 H22        14.8198   -8.2179   -3.1986 H         1 <0>         0.1412
     57 H23        15.7496   -8.8299   -5.4215 H         1 <0>         0.1472
     58 H24        17.3089   -7.2864   -6.5403 H         1 <0>         0.1671
     59 H25        17.0602   -4.5887   -3.3961 H         1 <0>         0.1530
     60 H26        16.6564   -4.4144   -1.5301 H         1 <0>         0.3898
     61 H27        13.3378   -5.4622   -0.1538 H         1 <0>         0.4298
@<TRIPOS>BOND
     1    1    6 ar
     2    1    2 ar
     3    1   36 1
     4    2    3 ar
     5    2   37 1
     6    3    4 ar
     7    3   38 1
     8    4   10 ar
     9    4    5 ar
    10    5    6 ar
    11    5    7 ar
    12    6   39 1
    13    7    8 ar
    14    7   40 1
    15    8    9 ar
    16    8   41 1
    17    9   10 ar
    18    9   42 1
    19   10   11 1
    20   11   12 2
    21   12   13 1
    22   12   16 1
    23   13   14 1
    24   13   43 1
    25   14   15 3
    26   16   17 1
    27   16   44 1
    28   17   22 ar
    29   17   18 ar
    30   18   19 ar
    31   18   45 1
    32   19   20 ar
    33   19   46 1
    34   20   21 ar
    35   20   23 1
    36   21   22 ar
    37   21   47 1
    38   22   48 1
    39   23   24 1
    40   23   49 1
    41   23   50 1
    42   24   25 1
    43   24   51 1
    44   24   52 1
    45   25   26 1
    46   25   53 1
    47   25   61 1
    48   26   27 1
    49   26   54 1
    50   26   55 1
    51   27   28 1
    52   27   29 1
    53   27   35 1
    54   29   34 ar
    55   29   30 ar
    56   30   31 ar
    57   30   56 1
    58   31   32 ar
    59   31   57 1
    60   32   33 ar
    61   32   58 1
    62   33   34 ar
    63   34   59 1
    64   35   60 1
@<TRIPOS>MOLECULE
CHEMBL42895
   42    44     0     0     0
SMALL
USER_CHARGES

@<TRIPOS>ATOM
      1 C1          0.1182    1.3503    1.1112 C.ar      1 <0>        -0.1791
      2 C2          1.3109    2.0502    1.1053 C.ar      1 <0>        -0.0721
      3 C3          2.5083    1.3761    0.9680 C.ar      1 <0>        -0.1944
      4 C4          2.5138   -0.0067    0.8357 C.ar      1 <0>         0.2141
      5 C5          1.3140   -0.7067    0.8420 C.ar      1 <0>        -0.2003
      6 C6          0.1201   -0.0263    0.9797 C.ar      1 <0>        -0.0728
      7 N1          3.7231   -0.6917    0.6962 N.pl3     1 <0>        -0.7429
      8 C7          3.7270   -2.1501    0.5568 C.3       1 <0>         0.0999
      9 C8          5.1682   -2.6456    0.4211 C.3       1 <0>         0.1031
     10 C9          5.1664   -4.1515    0.1510 C.3       1 <0>         0.0449
     11 O1          6.5036   -4.5936   -0.0910 O.3       1 <0>        -0.2181
     12 N2          6.6129   -5.9808   -0.3534 N.2       1 <0>        -0.3429
     13 C10         7.7593   -6.4995   -0.5859 C.2       1 <0>         0.2013
     14 C11         7.8939   -7.9928   -0.7374 C.3       1 <0>        -0.1110
     15 C12         7.1687   -8.6519   -1.9124 C.3       1 <0>        -0.1577
     16 C13         6.6472   -8.8435   -0.4869 C.3       1 <0>        -0.1612
     17 C14         8.9748   -5.6170   -0.7084 C.3       1 <0>        -0.1570
     18 C15         8.8578   -4.3717   -1.5895 C.3       1 <0>        -0.1522
     19 C16         9.6804   -5.5709   -2.0651 C.3       1 <0>        -0.1635
     20 O2          5.8792   -2.3796    1.6318 O.3       1 <0>        -0.5479
     21 H1         -0.8165    1.8796    1.2232 H         1 <0>         0.1182
     22 H2          1.3059    3.1254    1.2078 H         1 <0>         0.1211
     23 H3          3.4394    1.9233    0.9631 H         1 <0>         0.1193
     24 H4          1.3147   -1.7818    0.7390 H         1 <0>         0.1178
     25 H5         -0.8131   -0.5699    0.9846 H         1 <0>         0.1201
     26 H6          4.5602   -0.2018    0.6916 H         1 <0>         0.4043
     27 H7          3.2693   -2.6005    1.4376 H         1 <0>         0.0665
     28 H8          3.1608   -2.4317   -0.3311 H         1 <0>         0.0716
     29 H9          5.6537   -2.1285   -0.4065 H         1 <0>         0.1128
     30 H10         4.7616   -4.6755    1.0169 H         1 <0>         0.0621
     31 H11         4.5500   -4.3632   -0.7226 H         1 <0>         0.0662
     32 H12         8.8562   -8.4105   -0.4412 H         1 <0>         0.1319
     33 H13         6.5942   -8.0054   -2.5758 H         1 <0>         0.0959
     34 H14         7.6539   -9.5034   -2.3896 H         1 <0>         0.1047
     35 H15         6.7893   -9.8211   -0.0262 H         1 <0>         0.1022
     36 H16         5.7296   -8.3231   -0.2124 H         1 <0>         0.1047
     37 H17         9.5957   -5.5456    0.1846 H         1 <0>         0.1218
     38 H18         7.9017   -4.1907   -2.0806 H         1 <0>         0.0933
     39 H19         9.4018   -3.4806   -1.2762 H         1 <0>         0.0993
     40 H20        10.7656   -5.4687   -2.0648 H         1 <0>         0.1011
     41 H21         9.2656   -6.1787   -2.8692 H         1 <0>         0.0971
     42 H22         5.5021   -2.8089    2.4118 H         1 <0>         0.3777
@<TRIPOS>BOND
     1    1    6 ar
     2    1    2 ar
     3    1   21 1
     4    2    3 ar
     5    2   22 1
     6    3    4 ar
     7    3   23 1
     8    4    5 ar
     9    4    7 1
    10    5    6 ar
    11    5   24 1
    12    6   25 1
    13    7    8 1
    14    7   26 1
    15    8    9 1
    16    8   27 1
    17    8   28 1
    18    9   10 1
    19    9   20 1
    20    9   29 1
    21   10   11 1
    22   10   30 1
    23   10   31 1
    24   11   12 1
    25   12   13 2
    26   13   14 1
    27   13   17 1
    28   14   16 1
    29   14   15 1
    30   14   32 1
    31   15   16 1
    32   15   33 1
    33   15   34 1
    34   16   35 1
    35   16   36 1
    36   17   19 1
    37   17   18 1
    38   17   37 1
    39   18   19 1
    40   18   38 1
    41   18   39 1
    42   19   40 1
    43   19   41 1
    44   20   42 1
@<TRIPOS>MOLECULE
CHEMBL42895__1
   42    44     0     0     0
SMALL
USER_CHARGES

@<TRIPOS>ATOM
      1 C1          0.0098    1.3424    1.1173 C.ar      1 <0>        -0.1792
      2 C2          1.1961    2.0530    1.1141 C.ar      1 <0>        -0.0721
      3 C3          2.3998    1.3898    0.9776 C.ar      1 <0>        -0.1944
      4 C4          2.4179    0.0073    0.8434 C.ar      1 <0>         0.2143
      5 C5          1.2245   -0.7034    0.8471 C.ar      1 <0>        -0.2003
      6 C6          0.0243   -0.0340    0.9839 C.ar      1 <0>        -0.0729
      7 N1          3.6335   -0.6665    0.7048 N.pl3     1 <0>        -0.7425
      8 C7          3.6508   -2.1246    0.5634 C.3       1 <0>         0.0996
      9 C8          5.0966   -2.6069    0.4292 C.3       1 <0>         0.1031
     10 C9          5.1146   -4.1296    0.2816 C.3       1 <0>         0.0451
     11 O1          6.4669   -4.5914    0.2732 O.3       1 <0>        -0.2182
     12 N2          6.5953   -5.9953    0.1401 N.2       1 <0>        -0.3430
     13 C10         7.7564   -6.5324    0.1192 C.2       1 <0>         0.2014
     14 C11         7.8923   -8.0332    0.1075 C.3       1 <0>        -0.1111
     15 C12         7.3373   -8.7834   -1.1051 C.3       1 <0>        -0.1576
     16 C13         6.6115   -8.8596    0.2396 C.3       1 <0>        -0.1614
     17 C14         8.9881   -5.6642    0.1063 C.3       1 <0>        -0.1594
     18 C15         9.0168   -4.4933   -0.8781 C.3       1 <0>        -0.1484
     19 C16         9.8843   -5.7277   -1.1321 C.3       1 <0>        -0.1643
     20 O2          5.6929   -2.0094   -0.7238 O.3       1 <0>        -0.5476
     21 H1         -0.9298    1.8630    1.2286 H         1 <0>         0.1181
     22 H2          1.1812    3.1279    1.2180 H         1 <0>         0.1211
     23 H3          3.3259    1.9455    0.9748 H         1 <0>         0.1194
     24 H4          1.2351   -1.7783    0.7426 H         1 <0>         0.1178
     25 H5         -0.9040   -0.5860    0.9867 H         1 <0>         0.1201
     26 H6          4.4662   -0.1691    0.7021 H         1 <0>         0.4049
     27 H7          3.1959   -2.5803    1.4429 H         1 <0>         0.0721
     28 H8          3.0885   -2.4101   -0.3256 H         1 <0>         0.0656
     29 H9          5.6588   -2.3214    1.3182 H         1 <0>         0.1134
     30 H10         4.5813   -4.5821    1.1176 H         1 <0>         0.0674
     31 H11         4.6292   -4.4098   -0.6533 H         1 <0>         0.0606
     32 H12         8.7957   -8.4271    0.5731 H         1 <0>         0.1318
     33 H13         6.8739   -8.1913   -1.8943 H         1 <0>         0.0958
     34 H14         7.8757   -9.6710   -1.4374 H         1 <0>         0.1046
     35 H15         6.6723   -9.7973    0.7920 H         1 <0>         0.1022
     36 H16         5.6705   -8.3177    0.3351 H         1 <0>         0.1047
     37 H17         9.4734   -5.5223    1.0720 H         1 <0>         0.1209
     38 H18         8.1448   -4.3509   -1.5164 H         1 <0>         0.0956
     39 H19         9.5210   -3.5807   -0.5601 H         1 <0>         0.0987
     40 H20        10.9591   -5.6272   -0.9813 H         1 <0>         0.1005
     41 H21         9.5830   -6.3975   -1.9376 H         1 <0>         0.0967
     42 H22         5.2433   -2.2210   -1.5534 H         1 <0>         0.3770
@<TRIPOS>BOND
     1    1    6 ar
     2    1    2 ar
     3    1   21 1
     4    2    3 ar
     5    2   22 1
     6    3    4 ar
     7    3   23 1
     8    4    5 ar
     9    4    7 1
    10    5    6 ar
    11    5   24 1
    12    6   25 1
    13    7    8 1
    14    7   26 1
    15    8    9 1
    16    8   27 1
    17    8   28 1
    18    9   10 1
    19    9   20 1
    20    9   29 1
    21   10   11 1
    22   10   30 1
    23   10   31 1
    24   11   12 1
    25   12   13 2
    26   13   14 1
    27   13   17 1
    28   14   16 1
    29   14   15 1
    30   14   32 1
    31   15   16 1
    32   15   33 1
    33   15   34 1
    34   16   35 1
    35   16   36 1
    36   17   19 1
    37   17   18 1
    38   17   37 1
    39   18   19 1
    40   18   38 1
    41   18   39 1
    42   19   40 1
    43   19   41 1
    44   20   42 1
@<TRIPOS>MOLECULE
CHEMBL492006
   54    56     0     0     0
SMALL
USER_CHARGES

@<TRIPOS>ATOM
      1 C1         -0.8995    0.8675    1.5249 C.3       1 <0>        -0.1821
      2 C2         -0.6925   -0.6040    1.1603 C.3       1 <0>         0.0299
      3 H1         -0.1586   -1.1065    1.9669 H         1 <0>         0.1402
      4 C3          0.1248   -0.6996   -0.1295 C.3       1 <0>        -0.0991
      5 C4          0.4336   -2.1453   -0.4225 C.ar      1 <0>        -0.0891
      6 C5          1.5844   -2.7221    0.0828 C.ar      1 <0>        -0.1474
      7 C6          1.8706   -4.0480   -0.1841 C.ar      1 <0>        -0.0702
      8 C7          1.0068   -4.8005   -0.9564 C.ar      1 <0>        -0.1399
      9 C8         -0.1486   -4.2244   -1.4642 C.ar      1 <0>         0.1491
     10 C9         -0.4360   -2.8945   -1.1907 C.ar      1 <0>        -0.2189
     11 O1         -0.9999   -4.9624   -2.2240 O.3       1 <0>        -0.2486
     12 C10        -2.1216   -4.3574   -2.6958 C.ar      1 <0>         0.0444
     13 C11        -2.0876   -3.6810   -3.9084 C.ar      1 <0>        -0.1332
     14 C12        -3.2253   -3.0634   -4.3940 C.ar      1 <0>        -0.1220
     15 C13        -4.4030   -3.1143   -3.6770 C.ar      1 <0>        -0.0777
     16 C14        -4.4477   -3.7922   -2.4562 C.ar      1 <0>        -0.1166
     17 C15        -3.2990   -4.4206   -1.9703 C.ar      1 <0>        -0.0975
     18 C16        -5.7051   -3.8490   -1.6862 C.2       1 <0>         0.5215
     19 O2         -6.7108   -3.3021   -2.1163 O.co2     1 <0>        -0.6743
     20 O3         -5.7415   -4.4430   -0.6179 O.co2     1 <0>        -0.6809
     21 N1         -1.9979   -1.2476    0.9617 N.4       1 <0>        -0.5071
     22 C17        -2.7351   -1.2621    2.2323 C.3       1 <0>        -0.0450
     23 C18        -4.0948   -1.9324    2.0254 C.3       1 <0>         0.1320
     24 H2         -3.9466   -2.9555    1.6796 H         1 <0>         0.1390
     25 C19        -4.8511   -1.9473    3.3288 C.ar      1 <0>        -0.1132
     26 C20        -5.6038   -0.8497    3.7037 C.ar      1 <0>        -0.1027
     27 C21        -6.2977   -0.8626    4.8990 C.ar      1 <0>        -0.1000
     28 C22        -6.2391   -1.9728    5.7206 C.ar      1 <0>        -0.0976
     29 C23        -5.4862   -3.0711    5.3461 C.ar      1 <0>        -0.0307
     30 C24        -4.7966   -3.0600    4.1464 C.ar      1 <0>        -0.0896
     31 Cl1        -5.4121   -4.4656    6.3774 Cl        1 <0>        -0.0567
     32 O4         -4.8418   -1.2033    1.0495 O.3       1 <0>        -0.5223
     33 H3          0.0691    1.3451    1.6723 H         1 <0>         0.1061
     34 H4         -1.4334    1.3700    0.7184 H         1 <0>         0.0839
     35 H5         -1.4818    0.9356    2.4438 H         1 <0>         0.0821
     36 H6         -0.4476   -0.2759   -0.9547 H         1 <0>         0.0980
     37 H7          1.0562   -0.1459   -0.0114 H         1 <0>         0.1215
     38 H8          2.2610   -2.1356    0.6867 H         1 <0>         0.1285
     39 H9          2.7704   -4.4959    0.2111 H         1 <0>         0.1367
     40 H10         1.2310   -5.8362   -1.1649 H         1 <0>         0.1388
     41 H11        -1.3366   -2.4447   -1.5817 H         1 <0>         0.1313
     42 H12        -1.1686   -3.6369   -4.4741 H         1 <0>         0.1230
     43 H13        -3.1920   -2.5391   -5.3376 H         1 <0>         0.1269
     44 H14        -5.2896   -2.6301   -4.0591 H         1 <0>         0.1356
     45 H15        -3.3279   -4.9500   -1.0294 H         1 <0>         0.1328
     46 H16        -2.5254   -0.7328    0.2726 H         1 <0>         0.4300
     47 H17        -2.1653   -1.8182    2.9766 H         1 <0>         0.1419
     48 H18        -2.8833   -0.2390    2.5780 H         1 <0>         0.1374
     49 H19        -5.6493    0.0181    3.0624 H         1 <0>         0.1293
     50 H20        -6.8855   -0.0050    5.1913 H         1 <0>         0.1389
     51 H21        -6.7807   -1.9824    6.6549 H         1 <0>         0.1391
     52 H22        -4.2122   -3.9190    3.8514 H         1 <0>         0.1392
     53 H23        -5.0115   -0.2825    1.2914 H         1 <0>         0.3758
     54 H24        -1.8608   -2.1946    0.6416 H         1 <0>         0.4296
@<TRIPOS>BOND
     1    1    2 1
     2    1   33 1
     3    1   34 1
     4    1   35 1
     5    2    3 1
     6    2    4 1
     7    2   21 1
     8    4    5 1
     9    4   36 1
    10    4   37 1
    11    5   10 ar
    12    5    6 ar
    13    6    7 ar
    14    6   38 1
    15    7    8 ar
    16    7   39 1
    17    8    9 ar
    18    8   40 1
    19    9   10 ar
    20    9   11 1
    21   10   41 1
    22   11   12 1
    23   12   17 ar
    24   12   13 ar
    25   13   14 ar
    26   13   42 1
    27   14   15 ar
    28   14   43 1
    29   15   16 ar
    30   15   44 1
    31   16   17 ar
    32   16   18 1
    33   17   45 1
    34   18   19 2
    35   18   20 1
    36   21   22 1
    37   21   46 1
    38   21   54 1
    39   22   23 1
    40   22   47 1
    41   22   48 1
    42   23   24 1
    43   23   25 1
    44   23   32 1
    45   25   30 ar
    46   25   26 ar
    47   26   27 ar
    48   26   49 1
    49   27   28 ar
    50   27   50 1
    51   28   29 ar
    52   28   51 1
    53   29   30 ar
    54   29   31 1
    55   30   52 1
    56   32   53 1
@<TRIPOS>MOLECULE
CHEMBL41214
   58    61     0     0     0
SMALL
USER_CHARGES

@<TRIPOS>ATOM
      1 C1         -0.0153    1.4287    0.0361 C.ar      1 <0>        -0.1013
      2 C2          1.1746    2.1542    0.0331 C.ar      1 <0>        -0.1289
      3 C3          2.3803    1.5225    0.0092 C.ar      1 <0>        -0.0828
      4 C4          2.4294    0.1194   -0.0129 C.ar      1 <0>        -0.0711
      5 C5          1.2199   -0.6189   -0.0098 C.ar      1 <0>        -0.0188
      6 C6         -0.0061    0.0679    0.0151 C.ar      1 <0>        -0.1180
      7 C7          1.2692   -2.0231   -0.0314 C.ar      1 <0>        -0.1453
      8 C8          2.4741   -2.6571   -0.0549 C.ar      1 <0>        -0.0756
      9 C9          3.6649   -1.9364   -0.0580 C.ar      1 <0>        -0.2259
     10 C10         3.6587   -0.5699   -0.0375 C.ar      1 <0>         0.1478
     11 O1          4.8290    0.1192   -0.0412 O.3       1 <0>        -0.2976
     12 C11         6.0339   -0.6486   -0.0667 C.3       1 <0>         0.0266
     13 C12         7.2392    0.2938   -0.0671 C.3       1 <0>         0.1161
     14 C13         8.5245   -0.5221   -0.2200 C.3       1 <0>         0.0259
     15 N1          9.6817    0.3827   -0.2204 N.3       1 <0>        -0.5235
     16 C14         9.6690    1.2531   -1.4037 C.3       1 <0>         0.0361
     17 C15        10.7828    2.2979   -1.2770 C.3       1 <0>         0.1239
     18 N2         12.0536    1.5989   -1.0328 N.pl3     1 <0>        -0.6248
     19 C16        12.1050    0.6073    0.0522 C.3       1 <0>         0.1194
     20 C17        10.9392   -0.3710   -0.1267 C.3       1 <0>         0.0404
     21 C18        13.1821    1.8694   -1.8114 C.ar      1 <0>         0.2121
     22 C19        13.0863    2.7239   -2.9024 C.ar      1 <0>        -0.1362
     23 C20        14.2032    2.9898   -3.6697 C.ar      1 <0>        -0.0719
     24 C21        15.4172    2.4058   -3.3526 C.ar      1 <0>        -0.0156
     25 C22        15.5155    1.5543   -2.2665 C.ar      1 <0>        -0.6154
     26 C23        14.4027    1.2889   -1.4924 C.ar      1 <0>        -0.0912
     27 S1         17.0632    0.8130   -1.8665 S.o2      1 <0>         2.6982
     28 O2         18.0257    1.8584   -1.8643 O.2       1 <0>        -0.9441
     29 O3         16.8361   -0.0158   -0.7349 O.2       1 <0>        -0.9621
     30 N3         17.4616   -0.1946   -3.1188 N.pl3     1 <0>        -1.2455
     31 Cl1        16.8191    2.7418   -4.3198 Cl        1 <0>        -0.0452
     32 O4          7.2783    1.0178    1.1643 O.3       1 <0>        -0.5351
     33 H1         -0.9586    1.9541    0.0598 H         1 <0>         0.1252
     34 H2          1.1397    3.2335    0.0497 H         1 <0>         0.1252
     35 H3          3.2944    2.0977    0.0068 H         1 <0>         0.1323
     36 H4         -0.9361   -0.4813    0.0180 H         1 <0>         0.1302
     37 H5          0.3546   -2.5974   -0.0290 H         1 <0>         0.1287
     38 H6          2.5063   -3.7365   -0.0710 H         1 <0>         0.1250
     39 H7          4.6068   -2.4644   -0.0765 H         1 <0>         0.1255
     40 H8          6.0746   -1.2901    0.8136 H         1 <0>         0.0693
     41 H9          6.0536   -1.2641   -0.9661 H         1 <0>         0.0718
     42 H10         7.1525    0.9942   -0.8978 H         1 <0>         0.1083
     43 H11         8.6111   -1.2225    0.6107 H         1 <0>         0.0856
     44 H12         8.4947   -1.0744   -1.1593 H         1 <0>         0.0480
     45 H13         9.8334    0.6528   -2.2985 H         1 <0>         0.0399
     46 H14         8.7047    1.7562   -1.4748 H         1 <0>         0.0917
     47 H15        10.8526    2.8725   -2.2007 H         1 <0>         0.0878
     48 H16        10.5658    2.9652   -0.4429 H         1 <0>         0.0795
     49 H17        13.0490    0.0642    0.0074 H         1 <0>         0.0908
     50 H18        12.0151    1.1121    1.0141 H         1 <0>         0.0796
     51 H19        10.8961   -1.0457    0.7283 H         1 <0>         0.0907
     52 H20        11.0859   -0.9486   -1.0394 H         1 <0>         0.0408
     53 H21        12.1391    3.1797   -3.1505 H         1 <0>         0.1417
     54 H22        14.1292    3.6538   -4.5182 H         1 <0>         0.1445
     55 H23        14.4810    0.6277   -0.6421 H         1 <0>         0.1534
     56 H24        16.8685   -0.2780   -3.8818 H         1 <0>         0.4165
     57 H25        18.2882   -0.7015   -3.0894 H         1 <0>         0.4231
     58 H26         7.3550    0.4567    1.9482 H         1 <0>         0.3743
@<TRIPOS>BOND
     1    1    6 ar
     2    1    2 ar
     3    1   33 1
     4    2    3 ar
     5    2   34 1
     6    3    4 ar
     7    3   35 1
     8    4   10 ar
     9    4    5 ar
    10    5    6 ar
    11    5    7 ar
    12    6   36 1
    13    7    8 ar
    14    7   37 1
    15    8    9 ar
    16    8   38 1
    17    9   10 ar
    18    9   39 1
    19   10   11 1
    20   11   12 1
    21   12   13 1
    22   12   40 1
    23   12   41 1
    24   13   14 1
    25   13   32 1
    26   13   42 1
    27   14   15 1
    28   14   43 1
    29   14   44 1
    30   15   20 1
    31   15   16 1
    32   16   17 1
    33   16   45 1
    34   16   46 1
    35   17   18 1
    36   17   47 1
    37   17   48 1
    38   18   19 1
    39   18   21 1
    40   19   20 1
    41   19   49 1
    42   19   50 1
    43   20   51 1
    44   20   52 1
    45   21   26 ar
    46   21   22 ar
    47   22   23 ar
    48   22   53 1
    49   23   24 ar
    50   23   54 1
    51   24   25 ar
    52   24   31 1
    53   25   26 ar
    54   25   27 1
    55   26   55 1
    56   27   28 2
    57   27   29 2
    58   27   30 1
    59   30   56 1
    60   30   57 1
    61   32   58 1
@<TRIPOS>MOLECULE
CHEMBL41214__1
   59    62     0     0     0
SMALL
USER_CHARGES

@<TRIPOS>ATOM
      1 C1         -0.0147    1.4314    0.0349 C.ar      1 <0>        -0.0998
      2 C2          1.1754    2.1566    0.0316 C.ar      1 <0>        -0.1194
      3 C3          2.3809    1.5245    0.0083 C.ar      1 <0>        -0.0920
      4 C4          2.4296    0.1214   -0.0127 C.ar      1 <0>        -0.0665
      5 C5          1.2199   -0.6166   -0.0094 C.ar      1 <0>        -0.0208
      6 C6         -0.0060    0.0706    0.0149 C.ar      1 <0>        -0.1122
      7 C7          1.2687   -2.0208   -0.0299 C.ar      1 <0>        -0.1296
      8 C8          2.4734   -2.6552   -0.0528 C.ar      1 <0>        -0.0840
      9 C9          3.6644   -1.9348   -0.0562 C.ar      1 <0>        -0.2159
     10 C10         3.6587   -0.5683   -0.0367 C.ar      1 <0>         0.1353
     11 O1          4.8291    0.1205   -0.0407 O.3       1 <0>        -0.2977
     12 C11         6.0338   -0.6477   -0.0655 C.3       1 <0>         0.0293
     13 C12         7.2395    0.2943   -0.0664 C.3       1 <0>         0.0863
     14 C13         8.5245   -0.5221   -0.2185 C.3       1 <0>        -0.0437
     15 N1          9.6820    0.3823   -0.2194 N.4       1 <0>        -0.3772
     16 C14         9.6203    1.2522   -1.4007 C.3       1 <0>        -0.0292
     17 C15        10.7628    2.2717   -1.3434 C.3       1 <0>         0.0993
     18 N2         12.0313    1.5423   -1.1920 N.pl3     1 <0>        -0.6423
     19 C16        12.1257    0.5285   -0.1302 C.3       1 <0>         0.0936
     20 C17        10.9189   -0.4086   -0.2449 C.3       1 <0>        -0.0222
     21 C18        13.1159    1.8048   -2.0332 C.ar      1 <0>         0.1871
     22 C19        12.9725    2.6832   -3.0999 C.ar      1 <0>        -0.1191
     23 C20        14.0460    2.9411   -3.9293 C.ar      1 <0>        -0.0752
     24 C21        15.2639    2.3254   -3.6987 C.ar      1 <0>         0.0070
     25 C22        15.4095    1.4502   -2.6370 C.ar      1 <0>        -0.6211
     26 C23        14.3405    1.1925   -1.8011 C.ar      1 <0>        -0.0770
     27 S1         16.9619    0.6686   -2.3472 S.o2      1 <0>         2.6966
     28 O2         17.9457    1.6933   -2.3844 O.2       1 <0>        -0.9356
     29 O3         16.7861   -0.1781   -1.2197 O.2       1 <0>        -0.9599
     30 N3         17.2606   -0.3215   -3.6406 N.pl3     1 <0>        -1.2440
     31 Cl1        16.6112    2.6516   -4.7437 Cl        1 <0>        -0.0244
     32 O4          7.2785    1.0191    1.1645 O.3       1 <0>        -0.5424
     33 H1         -0.9579    1.9571    0.0582 H         1 <0>         0.1294
     34 H2          1.1408    3.2359    0.0474 H         1 <0>         0.1275
     35 H3          3.2951    2.0994    0.0056 H         1 <0>         0.1296
     36 H4         -0.9361   -0.4783    0.0181 H         1 <0>         0.1343
     37 H5          0.3539   -2.5949   -0.0273 H         1 <0>         0.1332
     38 H6          2.5053   -3.7346   -0.0682 H         1 <0>         0.1283
     39 H7          4.6062   -2.4631   -0.0742 H         1 <0>         0.1232
     40 H8          6.0742   -1.2887    0.8152 H         1 <0>         0.0786
     41 H9          6.0535   -1.2639   -0.9644 H         1 <0>         0.0826
     42 H10         7.1531    0.9941   -0.8976 H         1 <0>         0.1344
     43 H11         8.6108   -1.2220    0.6127 H         1 <0>         0.1419
     44 H12         8.4946   -1.0750   -1.1574 H         1 <0>         0.1454
     45 H13         9.7174    0.6478   -2.3026 H         1 <0>         0.1357
     46 H14         8.6652    1.7772   -1.4160 H         1 <0>         0.1446
     47 H15        10.7820    2.8525   -2.2655 H         1 <0>         0.1285
     48 H16        10.6183    2.9361   -0.4914 H         1 <0>         0.0959
     49 H17        13.0460   -0.0431   -0.2503 H         1 <0>         0.1314
     50 H18        12.1189    1.0169    0.8442 H         1 <0>         0.0963
     51 H19        10.9207   -1.1075    0.5916 H         1 <0>         0.1455
     52 H20        10.9767   -0.9628   -1.1817 H         1 <0>         0.1360
     53 H21        12.0223    3.1636   -3.2805 H         1 <0>         0.1433
     54 H22        13.9350    3.6236   -4.7589 H         1 <0>         0.1525
     55 H23        14.4560    0.5126   -0.9699 H         1 <0>         0.1546
     56 H24        16.6203   -0.3769   -4.3671 H         1 <0>         0.4164
     57 H25        18.0760   -0.8461   -3.6717 H         1 <0>         0.4271
     58 H26         7.3550    0.4586    1.9487 H         1 <0>         0.3913
     59 H27         9.6644    0.9500    0.6146 H         1 <0>         0.4293
@<TRIPOS>BOND
     1    1    6 ar
     2    1    2 ar
     3    1   33 1
     4    2    3 ar
     5    2   34 1
     6    3    4 ar
     7    3   35 1
     8    4   10 ar
     9    4    5 ar
    10    5    6 ar
    11    5    7 ar
    12    6   36 1
    13    7    8 ar
    14    7   37 1
    15    8    9 ar
    16    8   38 1
    17    9   10 ar
    18    9   39 1
    19   10   11 1
    20   11   12 1
    21   12   13 1
    22   12   40 1
    23   12   41 1
    24   13   14 1
    25   13   32 1
    26   13   42 1
    27   14   15 1
    28   14   43 1
    29   14   44 1
    30   15   20 1
    31   15   16 1
    32   15   59 1
    33   16   17 1
    34   16   45 1
    35   16   46 1
    36   17   18 1
    37   17   47 1
    38   17   48 1
    39   18   19 1
    40   18   21 1
    41   19   20 1
    42   19   49 1
    43   19   50 1
    44   20   51 1
    45   20   52 1
    46   21   26 ar
    47   21   22 ar
    48   22   23 ar
    49   22   53 1
    50   23   24 ar
    51   23   54 1
    52   24   25 ar
    53   24   31 1
    54   25   26 ar
    55   25   27 1
    56   26   55 1
    57   27   28 2
    58   27   29 2
    59   27   30 1
    60   30   56 1
    61   30   57 1
    62   32   58 1
@<TRIPOS>MOLECULE
CHEMBL41214__2
   58    61     0     0     0
SMALL
USER_CHARGES

@<TRIPOS>ATOM
      1 C1          4.8558   -5.4400    6.3277 C.ar      1 <0>        -0.1011
      2 C2          5.8395   -4.4539    6.2809 C.ar      1 <0>        -0.1289
      3 C3          6.1774   -3.8567    5.1051 C.ar      1 <0>        -0.0825
      4 C4          5.5272   -4.2373    3.9202 C.ar      1 <0>        -0.0712
      5 C5          4.5268   -5.2398    3.9672 C.ar      1 <0>        -0.0187
      6 C6          4.2046   -5.8341    5.1995 C.ar      1 <0>        -0.1183
      7 C7          3.8765   -5.6210    2.7813 C.ar      1 <0>        -0.1456
      8 C8          4.2132   -5.0253    1.6039 C.ar      1 <0>        -0.0757
      9 C9          5.1951   -4.0401    1.5527 C.ar      1 <0>        -0.2265
     10 C10         5.8503   -3.6419    2.6841 C.ar      1 <0>         0.1483
     11 O1          6.8057   -2.6791    2.6179 O.3       1 <0>        -0.2971
     12 C11         7.0780   -2.1227    1.3301 C.3       1 <0>         0.0265
     13 C12         8.1741   -1.0625    1.4540 C.3       1 <0>         0.1183
     14 C13         8.5533   -0.5559    0.0610 C.3       1 <0>         0.0260
     15 N1          9.6097    0.4580    0.1795 N.3       1 <0>        -0.5240
     16 C14         9.6779    1.2910   -1.0286 C.3       1 <0>         0.0409
     17 C15        10.6607    2.4433   -0.7957 C.3       1 <0>         0.1240
     18 N2         11.9459    1.8795   -0.3557 N.pl3     1 <0>        -0.6248
     19 C16        11.9408    0.9272    0.7652 C.3       1 <0>         0.1191
     20 C17        10.9075   -0.1654    0.4709 C.3       1 <0>         0.0375
     21 C18        13.1402    2.2387   -0.9862 C.ar      1 <0>         0.2120
     22 C19        13.1430    3.2318   -1.9575 C.ar      1 <0>        -0.1360
     23 C20        14.3246    3.5851   -2.5786 C.ar      1 <0>        -0.0719
     24 C21        15.5055    2.9507   -2.2341 C.ar      1 <0>        -0.0158
     25 C22        15.5057    1.9613   -1.2670 C.ar      1 <0>        -0.6153
     26 C23        14.3275    1.6076   -0.6387 C.ar      1 <0>        -0.0912
     27 S1         17.0114    1.1564   -0.8316 S.o2      1 <0>         2.6978
     28 O2         17.9686    2.1815   -0.6030 O.2       1 <0>        -0.9440
     29 O3         16.6834    0.1869    0.1542 O.2       1 <0>        -0.9618
     30 N3         17.5232    0.3200   -2.1661 N.pl3     1 <0>        -1.2453
     31 Cl1        16.9891    3.3970   -3.0173 Cl        1 <0>        -0.0452
     32 O4          7.6949    0.0281    2.2433 O.3       1 <0>        -0.5344
     33 H1          4.6096   -5.9013    7.2727 H         1 <0>         0.1251
     34 H2          6.3410   -4.1591    7.1908 H         1 <0>         0.1254
     35 H3          6.9415   -3.0937    5.0839 H         1 <0>         0.1326
     36 H4          3.4445   -6.5996    5.2507 H         1 <0>         0.1301
     37 H5          3.1125   -6.3841    2.8034 H         1 <0>         0.1286
     38 H6          3.7105   -5.3222    0.6954 H         1 <0>         0.1248
     39 H7          5.4430   -3.5841    0.6055 H         1 <0>         0.1252
     40 H8          7.4106   -2.9122    0.6562 H         1 <0>         0.0717
     41 H9          6.1721   -1.6642    0.9335 H         1 <0>         0.0684
     42 H10         9.0503   -1.5000    1.9325 H         1 <0>         0.1084
     43 H11         8.9149   -1.3885   -0.5425 H         1 <0>         0.0506
     44 H12         7.6781   -0.1147   -0.4159 H         1 <0>         0.0831
     45 H13        10.0191    0.6860   -1.8687 H         1 <0>         0.0399
     46 H14         8.6895    1.6947   -1.2483 H         1 <0>         0.0891
     47 H15        10.8024    2.9970   -1.7239 H         1 <0>         0.0876
     48 H16        10.2697    3.1081   -0.0255 H         1 <0>         0.0782
     49 H17        12.9287    0.4785    0.8690 H         1 <0>         0.0910
     50 H18        11.6727    1.4463    1.6854 H         1 <0>         0.0809
     51 H19        10.8109   -0.8180    1.3386 H         1 <0>         0.0912
     52 H20        11.2316   -0.7501   -0.3901 H         1 <0>         0.0416
     53 H21        12.2217    3.7269   -2.2270 H         1 <0>         0.1415
     54 H22        14.3273    4.3568   -3.3341 H         1 <0>         0.1445
     55 H23        14.3289    0.8382    0.1193 H         1 <0>         0.1536
     56 H24        17.0019    0.3454   -2.9837 H         1 <0>         0.4164
     57 H25        18.3441   -0.1954   -2.1301 H         1 <0>         0.4231
     58 H26         6.9145    0.4659    1.8767 H         1 <0>         0.3722
@<TRIPOS>BOND
     1    1    6 ar
     2    1    2 ar
     3    1   33 1
     4    2    3 ar
     5    2   34 1
     6    3    4 ar
     7    3   35 1
     8    4   10 ar
     9    4    5 ar
    10    5    6 ar
    11    5    7 ar
    12    6   36 1
    13    7    8 ar
    14    7   37 1
    15    8    9 ar
    16    8   38 1
    17    9   10 ar
    18    9   39 1
    19   10   11 1
    20   11   12 1
    21   12   13 1
    22   12   40 1
    23   12   41 1
    24   13   14 1
    25   13   32 1
    26   13   42 1
    27   14   15 1
    28   14   43 1
    29   14   44 1
    30   15   20 1
    31   15   16 1
    32   16   17 1
    33   16   45 1
    34   16   46 1
    35   17   18 1
    36   17   47 1
    37   17   48 1
    38   18   19 1
    39   18   21 1
    40   19   20 1
    41   19   49 1
    42   19   50 1
    43   20   51 1
    44   20   52 1
    45   21   26 ar
    46   21   22 ar
    47   22   23 ar
    48   22   53 1
    49   23   24 ar
    50   23   54 1
    51   24   25 ar
    52   24   31 1
    53   25   26 ar
    54   25   27 1
    55   26   55 1
    56   27   28 2
    57   27   29 2
    58   27   30 1
    59   30   56 1
    60   30   57 1
    61   32   58 1
@<TRIPOS>MOLECULE
CHEMBL41214__3
   59    62     0     0     0
SMALL
USER_CHARGES

@<TRIPOS>ATOM
      1 C1          5.9379   -6.6519    5.7836 C.ar      1 <0>        -0.0995
      2 C2          6.8986   -5.6424    5.7696 C.ar      1 <0>        -0.1194
      3 C3          7.0387   -4.8235    4.6912 C.ar      1 <0>        -0.0917
      4 C4          6.2046   -4.9956    3.5748 C.ar      1 <0>        -0.0666
      5 C5          5.2275   -6.0218    3.5884 C.ar      1 <0>        -0.0207
      6 C6          5.1121   -6.8479    4.7197 C.ar      1 <0>        -0.1125
      7 C7          4.3931   -6.1943    2.4710 C.ar      1 <0>        -0.1298
      8 C8          4.5318   -5.3766    1.3909 C.ar      1 <0>        -0.0841
      9 C9          5.4900   -4.3672    1.3728 C.ar      1 <0>        -0.2164
     10 C10         6.3202   -4.1676    2.4399 C.ar      1 <0>         0.1357
     11 O1          7.2499   -3.1782    2.4072 O.3       1 <0>        -0.2974
     12 C11         7.3070   -2.3805    1.2230 C.3       1 <0>         0.0297
     13 C12         8.4063   -1.3266    1.3705 C.3       1 <0>         0.0858
     14 C13         8.5519   -0.5544    0.0577 C.3       1 <0>        -0.0433
     15 N1          9.6100    0.4549    0.1981 N.4       1 <0>        -0.3774
     16 C14         9.6435    1.2969   -1.0044 C.3       1 <0>        -0.0222
     17 C15        10.6678    2.4201   -0.8118 C.3       1 <0>         0.0985
     18 N2         11.9614    1.8158   -0.4575 N.pl3     1 <0>        -0.6423
     19 C16        11.9907    0.8318    0.6356 C.3       1 <0>         0.0945
     20 C17        10.9039   -0.2164    0.3748 C.3       1 <0>        -0.0291
     21 C18        13.1292    2.1663   -1.1402 C.ar      1 <0>         0.1872
     22 C19        13.1043    3.1853   -2.0841 C.ar      1 <0>        -0.1187
     23 C20        14.2599    3.5298   -2.7569 C.ar      1 <0>        -0.0752
     24 C21        15.4422    2.8610   -2.4917 C.ar      1 <0>         0.0068
     25 C22        15.4699    1.8457   -1.5522 C.ar      1 <0>        -0.6209
     26 C23        14.3181    1.5004   -0.8724 C.ar      1 <0>        -0.0774
     27 S1         16.9774    0.9968   -1.2178 S.o2      1 <0>         2.6963
     28 O2         17.9684    1.9944   -1.0131 O.2       1 <0>        -0.9355
     29 O3         16.6788    0.0080   -0.2418 O.2       1 <0>        -0.9597
     30 N3         17.3997    0.1864   -2.5988 N.pl3     1 <0>        -1.2439
     31 Cl1        16.8930    3.2964   -3.3398 Cl        1 <0>        -0.0244
     32 O4          8.0600   -0.4209    2.4201 O.3       1 <0>        -0.5419
     33 H1          5.8503   -7.2909    6.6499 H         1 <0>         0.1294
     34 H2          7.5412   -5.5076    6.6270 H         1 <0>         0.1277
     35 H3          7.7874   -4.0451    4.6944 H         1 <0>         0.1298
     36 H4          4.3723   -7.6344    4.7444 H         1 <0>         0.1343
     37 H5          3.6447   -6.9730    2.4686 H         1 <0>         0.1331
     38 H6          3.8882   -5.5137    0.5346 H         1 <0>         0.1281
     39 H7          5.5789   -3.7330    0.5031 H         1 <0>         0.1230
     40 H8          7.5269   -3.0174    0.3661 H         1 <0>         0.0826
     41 H9          6.3475   -1.8860    1.0714 H         1 <0>         0.0783
     42 H10         9.3498   -1.8169    1.6102 H         1 <0>         0.1351
     43 H11         8.8132   -1.2457   -0.7434 H         1 <0>         0.1455
     44 H12         7.6092   -0.0617   -0.1805 H         1 <0>         0.1412
     45 H13         9.9264    0.6906   -1.8648 H         1 <0>         0.1353
     46 H14         8.6573    1.7293   -1.1728 H         1 <0>         0.1440
     47 H15        10.7693    2.9860   -1.7379 H         1 <0>         0.1285
     48 H16        10.3402    3.0810   -0.0093 H         1 <0>         0.0944
     49 H17        12.9667    0.3476    0.6665 H         1 <0>         0.1315
     50 H18        11.7966    1.3323    1.5843 H         1 <0>         0.0977
     51 H19        10.8465   -0.8991    1.2226 H         1 <0>         0.1459
     52 H20        11.1487   -0.7770   -0.5274 H         1 <0>         0.1368
     53 H21        12.1820    3.7073   -2.2916 H         1 <0>         0.1433
     54 H22        14.2411    4.3218   -3.4910 H         1 <0>         0.1524
     55 H23        14.3413    0.7107   -0.1359 H         1 <0>         0.1546
     56 H24        16.8374    0.2455   -3.3870 H         1 <0>         0.4164
     57 H25        18.2094   -0.3473   -2.6195 H         1 <0>         0.4271
     58 H26         7.2293    0.0519    2.2735 H         1 <0>         0.3906
     59 H27         9.4187    1.0311    1.0040 H         1 <0>         0.4293
@<TRIPOS>BOND
     1    1    6 ar
     2    1    2 ar
     3    1   33 1
     4    2    3 ar
     5    2   34 1
     6    3    4 ar
     7    3   35 1
     8    4   10 ar
     9    4    5 ar
    10    5    6 ar
    11    5    7 ar
    12    6   36 1
    13    7    8 ar
    14    7   37 1
    15    8    9 ar
    16    8   38 1
    17    9   10 ar
    18    9   39 1
    19   10   11 1
    20   11   12 1
    21   12   13 1
    22   12   40 1
    23   12   41 1
    24   13   14 1
    25   13   32 1
    26   13   42 1
    27   14   15 1
    28   14   43 1
    29   14   44 1
    30   15   20 1
    31   15   16 1
    32   15   59 1
    33   16   17 1
    34   16   45 1
    35   16   46 1
    36   17   18 1
    37   17   47 1
    38   17   48 1
    39   18   19 1
    40   18   21 1
    41   19   20 1
    42   19   49 1
    43   19   50 1
    44   20   51 1
    45   20   52 1
    46   21   26 ar
    47   21   22 ar
    48   22   23 ar
    49   22   53 1
    50   23   24 ar
    51   23   54 1
    52   24   25 ar
    53   24   31 1
    54   25   26 ar
    55   25   27 1
    56   26   55 1
    57   27   28 2
    58   27   29 2
    59   27   30 1
    60   30   56 1
    61   30   57 1
    62   32   58 1
@<TRIPOS>MOLECULE
CHEMBL368457
   49    51     0     0     0
SMALL
USER_CHARGES

@<TRIPOS>ATOM
      1 C1         -0.0187    1.5258    0.0104 C.3       1 <0>        -0.1792
      2 C2          0.0021   -0.0041    0.0020 C.3       1 <0>         0.0548
      3 C3          0.7421   -0.5109    1.2415 C.3       1 <0>        -0.1798
      4 C4         -1.4333   -0.5336    0.0129 C.3       1 <0>        -0.1775
      5 N1          0.6897   -0.4778   -1.2066 N.4       1 <0>        -0.4983
      6 C5          2.0678    0.0307   -1.2170 C.3       1 <0>        -0.0491
      7 C6          2.7840   -0.4628   -2.4758 C.3       1 <0>         0.0882
      8 C7          4.2531   -0.0383   -2.4263 C.3       1 <0>         0.0442
      9 O1          4.9483   -0.5972   -3.5427 O.3       1 <0>        -0.2214
     10 N2          6.3234   -0.2629   -3.5910 N.2       1 <0>        -0.3114
     11 C8          7.0682   -0.7103   -4.5599 C.2       1 <0>         0.2392
     12 C9          6.6292   -1.5693   -5.6853 C.ar      1 <0>        -0.1175
     13 C10         5.3945   -2.1139   -6.0213 C.ar      1 <0>        -0.0616
     14 C11         5.2717   -2.8954   -7.1544 C.ar      1 <0>        -0.1207
     15 C12         6.3723   -3.1396   -7.9570 C.ar      1 <0>        -0.0917
     16 C13         7.6053   -2.6056   -7.6363 C.ar      1 <0>        -0.0944
     17 C14         7.7471   -1.8155   -6.4986 C.ar      1 <0>        -0.0321
     18 C15         8.9204   -1.1239   -5.9160 C.ar      1 <0>        -0.0326
     19 C16         8.5152   -0.4523   -4.7513 C.ar      1 <0>        -0.0691
     20 C17         9.4405    0.2824   -4.0177 C.ar      1 <0>        -0.0631
     21 C18        10.7548    0.3519   -4.4391 C.ar      1 <0>        -0.1151
     22 C19        11.1553   -0.3060   -5.5887 C.ar      1 <0>        -0.0906
     23 C20        10.2497   -1.0469   -6.3233 C.ar      1 <0>        -0.0922
     24 O2          2.1628    0.1050   -3.6307 O.3       1 <0>        -0.5450
     25 H1          1.0039    1.9031    0.0027 H         1 <0>         0.0810
     26 H2         -0.5459    1.8868   -0.8726 H         1 <0>         0.0834
     27 H3         -0.5289    1.8773    0.9072 H         1 <0>         0.1072
     28 H4          0.2319   -0.1594    2.1383 H         1 <0>         0.1073
     29 H5          0.7568   -1.6008    1.2356 H         1 <0>         0.0836
     30 H6          1.7647   -0.1336    1.2338 H         1 <0>         0.0816
     31 H7         -1.9605   -0.1726   -0.8702 H         1 <0>         0.0832
     32 H8         -1.4185   -1.6235    0.0069 H         1 <0>         0.0831
     33 H9         -1.9435   -0.1821    0.9097 H         1 <0>         0.1076
     34 H10         0.7033   -1.4867   -1.2121 H         1 <0>         0.4282
     35 H11         2.0530    1.1205   -1.2110 H         1 <0>         0.1423
     36 H12         2.5950   -0.3304   -0.3340 H         1 <0>         0.1480
     37 H13         2.7213   -1.5498   -2.5270 H         1 <0>         0.1320
     38 H14         4.3186    1.0490   -2.4647 H         1 <0>         0.0733
     39 H15         4.7039   -0.3970   -1.5010 H         1 <0>         0.0775
     40 H16         4.5330   -1.9266   -5.3976 H         1 <0>         0.1304
     41 H17         4.3124   -3.3179   -7.4146 H         1 <0>         0.1328
     42 H18         6.2665   -3.7522   -8.8401 H         1 <0>         0.1356
     43 H19         8.4592   -2.8007   -8.2682 H         1 <0>         0.1337
     44 H20         9.1323    0.7981   -3.1202 H         1 <0>         0.1325
     45 H21        11.4726    0.9227   -3.8687 H         1 <0>         0.1373
     46 H22        12.1845   -0.2452   -5.9104 H         1 <0>         0.1374
     47 H23        10.5702   -1.5567   -7.2199 H         1 <0>         0.1348
     48 H24         2.1814    1.0716   -3.6522 H         1 <0>         0.3906
     49 H25         0.2017   -0.1436   -2.0240 H         1 <0>         0.4317
@<TRIPOS>BOND
     1    1    2 1
     2    1   25 1
     3    1   26 1
     4    1   27 1
     5    2    3 1
     6    2    4 1
     7    2    5 1
     8    3   28 1
     9    3   29 1
    10    3   30 1
    11    4   31 1
    12    4   32 1
    13    4   33 1
    14    5    6 1
    15    5   34 1
    16    5   49 1
    17    6    7 1
    18    6   35 1
    19    6   36 1
    20    7    8 1
    21    7   24 1
    22    7   37 1
    23    8    9 1
    24    8   38 1
    25    8   39 1
    26    9   10 1
    27   10   11 2
    28   11   19 1
    29   11   12 1
    30   12   17 ar
    31   12   13 ar
    32   13   14 ar
    33   13   40 1
    34   14   15 ar
    35   14   41 1
    36   15   16 ar
    37   15   42 1
    38   16   17 ar
    39   16   43 1
    40   17   18 1
    41   18   23 ar
    42   18   19 ar
    43   19   20 ar
    44   20   21 ar
    45   20   44 1
    46   21   22 ar
    47   21   45 1
    48   22   23 ar
    49   22   46 1
    50   23   47 1
    51   24   48 1
@<TRIPOS>MOLECULE
CHEMBL368457__1
   49    51     0     0     0
SMALL
USER_CHARGES

@<TRIPOS>ATOM
      1 C1         -0.0187    1.5258    0.0104 C.3       1 <0>        -0.1798
      2 C2          0.0021   -0.0041    0.0020 C.3       1 <0>         0.0549
      3 C3          0.7421   -0.5109    1.2415 C.3       1 <0>        -0.1794
      4 C4         -1.4333   -0.5336    0.0129 C.3       1 <0>        -0.1774
      5 N1          0.6897   -0.4778   -1.2066 N.4       1 <0>        -0.4977
      6 C5          2.0678    0.0307   -1.2170 C.3       1 <0>        -0.0493
      7 C6          2.7840   -0.4628   -2.4758 C.3       1 <0>         0.0880
      8 C7          4.2193    0.0668   -2.4867 C.3       1 <0>         0.0442
      9 O1          4.8516   -0.2959   -3.7158 O.3       1 <0>        -0.2214
     10 N2          6.1913    0.1489   -3.8275 N.2       1 <0>        -0.3114
     11 C8          6.8780   -0.1175   -4.9004 C.2       1 <0>         0.2392
     12 C9          6.4028   -0.8654   -6.0886 C.ar      1 <0>        -0.1175
     13 C10         5.1838   -1.4606   -6.3946 C.ar      1 <0>        -0.0616
     14 C11         5.0168   -2.1061   -7.6051 C.ar      1 <0>        -0.1207
     15 C12         6.0577   -2.1636   -8.5152 C.ar      1 <0>        -0.0917
     16 C13         7.2745   -1.5772   -8.2257 C.ar      1 <0>        -0.0944
     17 C14         7.4602   -0.9223   -7.0110 C.ar      1 <0>        -0.0321
     18 C15         8.6295   -0.2164   -6.4378 C.ar      1 <0>        -0.0326
     19 C16         8.2819    0.2749   -5.1690 C.ar      1 <0>        -0.0691
     20 C17         9.2150    0.9855   -4.4218 C.ar      1 <0>        -0.0631
     21 C18        10.4799    1.2089   -4.9315 C.ar      1 <0>        -0.1151
     22 C19        10.8232    0.7290   -6.1832 C.ar      1 <0>        -0.0906
     23 C20         9.9101    0.0139   -6.9338 C.ar      1 <0>        -0.0922
     24 O2          2.8033   -1.8916   -2.4837 O.3       1 <0>        -0.5455
     25 H1          1.0039    1.9031    0.0027 H         1 <0>         0.0816
     26 H2         -0.5459    1.8868   -0.8726 H         1 <0>         0.0836
     27 H3         -0.5289    1.8773    0.9072 H         1 <0>         0.1073
     28 H4          0.2319   -0.1594    2.1383 H         1 <0>         0.1073
     29 H5          0.7568   -1.6008    1.2356 H         1 <0>         0.0833
     30 H6          1.7647   -0.1336    1.2338 H         1 <0>         0.0811
     31 H7         -1.9605   -0.1726   -0.8702 H         1 <0>         0.0832
     32 H8         -1.4185   -1.6235    0.0069 H         1 <0>         0.0832
     33 H9         -1.9435   -0.1821    0.9097 H         1 <0>         0.1076
     34 H10         0.7033   -1.4867   -1.2121 H         1 <0>         0.4313
     35 H11         2.0530    1.1205   -1.2110 H         1 <0>         0.1484
     36 H12         2.5950   -0.3304   -0.3340 H         1 <0>         0.1418
     37 H13         2.2568   -0.1017   -3.3589 H         1 <0>         0.1329
     38 H14         4.2068    1.1525   -2.3912 H         1 <0>         0.0778
     39 H15         4.7722   -0.3649   -1.6524 H         1 <0>         0.0730
     40 H16         4.3688   -1.4189   -5.6871 H         1 <0>         0.1303
     41 H17         4.0697   -2.5680   -7.8418 H         1 <0>         0.1328
     42 H18         5.9179   -2.6709   -9.4583 H         1 <0>         0.1356
     43 H19         8.0817   -1.6263   -8.9416 H         1 <0>         0.1337
     44 H20         8.9513    1.3626   -3.4447 H         1 <0>         0.1325
     45 H21        11.2038    1.7609   -4.3504 H         1 <0>         0.1373
     46 H22        11.8140    0.9092   -6.5733 H         1 <0>         0.1374
     47 H23        10.1857   -0.3565   -7.9101 H         1 <0>         0.1348
     48 H24         3.2576   -2.2830   -1.7250 H         1 <0>         0.3902
     49 H25         0.2017   -0.1436   -2.0240 H         1 <0>         0.4284
@<TRIPOS>BOND
     1    1    2 1
     2    1   25 1
     3    1   26 1
     4    1   27 1
     5    2    3 1
     6    2    4 1
     7    2    5 1
     8    3   28 1
     9    3   29 1
    10    3   30 1
    11    4   31 1
    12    4   32 1
    13    4   33 1
    14    5    6 1
    15    5   34 1
    16    5   49 1
    17    6    7 1
    18    6   35 1
    19    6   36 1
    20    7    8 1
    21    7   24 1
    22    7   37 1
    23    8    9 1
    24    8   38 1
    25    8   39 1
    26    9   10 1
    27   10   11 2
    28   11   19 1
    29   11   12 1
    30   12   17 ar
    31   12   13 ar
    32   13   14 ar
    33   13   40 1
    34   14   15 ar
    35   14   41 1
    36   15   16 ar
    37   15   42 1
    38   16   17 ar
    39   16   43 1
    40   17   18 1
    41   18   23 ar
    42   18   19 ar
    43   19   20 ar
    44   20   21 ar
    45   20   44 1
    46   21   22 ar
    47   21   45 1
    48   22   23 ar
    49   22   46 1
    50   23   47 1
    51   24   48 1
@<TRIPOS>MOLECULE
CHEMBL162513
   51    53     0     0     0
SMALL
USER_CHARGES

@<TRIPOS>ATOM
      1 C1          0.0258    1.8679   -0.0497 C.3       1 <0>        -0.6368
      2 S1          0.0342    0.0539   -0.0546 S.o2      1 <0>         2.5323
      3 O1          0.8554   -0.4346    0.9971 O.2       1 <0>        -1.0215
      4 O2         -1.2858   -0.4412   -0.2326 O.2       1 <0>        -1.0207
      5 N1          0.8332   -0.3642   -1.4436 N.2       1 <0>        -1.0839
      6 C2          1.0199   -1.7049   -1.7615 C.ar      1 <0>         0.3229
      7 C3          0.5296   -2.6946   -0.9140 C.ar      1 <0>        -0.2683
      8 C4          0.7128   -4.0223   -1.2258 C.ar      1 <0>         0.0082
      9 C5          1.3921   -4.3768   -2.3950 C.ar      1 <0>        -0.2803
     10 C6          1.8832   -3.3807   -3.2440 C.ar      1 <0>        -0.0437
     11 C7          1.6918   -2.0548   -2.9295 C.ar      1 <0>        -0.1927
     12 C8          1.5906   -5.7992   -2.7321 C.2       1 <0>         0.5825
     13 O3          1.1632   -6.6647   -1.9925 O.2       1 <0>        -0.5421
     14 N2          2.2457   -6.1395   -3.8597 N.am      1 <0>        -0.7622
     15 C9          2.4428   -7.5521   -4.1944 C.3       1 <0>         0.1018
     16 C10         3.2090   -7.6613   -5.5142 C.3       1 <0>         0.0038
     17 C11         3.5252   -9.1329   -5.8011 C.3       1 <0>         0.1095
     18 N3          4.3718   -9.2024   -7.0022 N.pl3     1 <0>        -0.6436
     19 C12         5.5672   -8.3469   -7.0582 C.3       1 <0>         0.0980
     20 C13         5.1546   -6.9124   -6.7120 C.3       1 <0>        -0.0230
     21 N4          4.4622   -6.9023   -5.4172 N.4       1 <0>        -0.5049
     22 C14         4.0499  -10.0568   -8.0593 C.ar      1 <0>         0.1977
     23 C15         4.7966  -10.0274   -9.2302 C.ar      1 <0>        -0.1871
     24 C16         4.4759  -10.8738  -10.2733 C.ar      1 <0>        -0.0723
     25 C17         3.4125  -11.7497  -10.1531 C.ar      1 <0>        -0.1582
     26 C18         2.6671  -11.7815   -8.9888 C.ar      1 <0>        -0.0707
     27 C19         2.9859  -10.9418   -7.9398 C.ar      1 <0>        -0.1855
     28 H1          1.0517    2.2360   -0.0511 H         1 <0>         0.1179
     29 H2         -0.4918    2.2312   -0.9375 H         1 <0>         0.1181
     30 H3         -0.4877    2.2264    0.8424 H         1 <0>         0.1076
     31 H4          0.0052   -2.4200   -0.0106 H         1 <0>         0.1116
     32 H5          0.3325   -4.7896   -0.5678 H         1 <0>         0.1167
     33 H6          2.4087   -3.6515   -4.1479 H         1 <0>         0.0956
     34 H7          2.0669   -1.2847   -3.5874 H         1 <0>         0.1188
     35 H8          2.5866   -5.4491   -4.4497 H         1 <0>         0.3899
     36 H9          3.0130   -8.0371   -3.4021 H         1 <0>         0.0939
     37 H10         1.4735   -8.0402   -4.2955 H         1 <0>         0.1121
     38 H11         2.6002   -7.2560   -6.3225 H         1 <0>         0.1498
     39 H12         4.0563   -9.5655   -4.9532 H         1 <0>         0.0939
     40 H13         2.5983   -9.6797   -5.9741 H         1 <0>         0.1297
     41 H14         6.3045   -8.7001   -6.3372 H         1 <0>         0.0896
     42 H15         5.9903   -8.3741   -8.0624 H         1 <0>         0.1272
     43 H16         6.0424   -6.2827   -6.6544 H         1 <0>         0.1466
     44 H17         4.4870   -6.5299   -7.4841 H         1 <0>         0.1359
     45 H18         4.2576   -5.9500   -5.1540 H         1 <0>         0.4292
     46 H19         5.6268   -9.3431   -9.3250 H         1 <0>         0.1228
     47 H20         5.0560  -10.8514  -11.1840 H         1 <0>         0.1270
     48 H21         3.1634  -12.4100  -10.9706 H         1 <0>         0.1252
     49 H22         1.8373  -12.4668   -8.8983 H         1 <0>         0.1279
     50 H23         2.4061  -10.9704   -7.0290 H         1 <0>         0.1244
     51 H24         5.0549   -7.3222   -4.7169 H         1 <0>         0.4291
@<TRIPOS>BOND
     1    1    2 1
     2    1   28 1
     3    1   29 1
     4    1   30 1
     5    2    3 2
     6    2    4 2
     7    2    5 1
     8    5    6 1
     9    6   11 ar
    10    6    7 ar
    11    7    8 ar
    12    7   31 1
    13    8    9 ar
    14    8   32 1
    15    9   10 ar
    16    9   12 1
    17   10   11 ar
    18   10   33 1
    19   11   34 1
    20   12   13 2
    21   12   14 am
    22   14   15 1
    23   14   35 1
    24   15   16 1
    25   15   36 1
    26   15   37 1
    27   16   21 1
    28   16   17 1
    29   16   38 1
    30   17   18 1
    31   17   39 1
    32   17   40 1
    33   18   19 1
    34   18   22 1
    35   19   20 1
    36   19   41 1
    37   19   42 1
    38   20   21 1
    39   20   43 1
    40   20   44 1
    41   21   45 1
    42   21   51 1
    43   22   27 ar
    44   22   23 ar
    45   23   24 ar
    46   23   46 1
    47   24   25 ar
    48   24   47 1
    49   25   26 ar
    50   25   48 1
    51   26   27 ar
    52   26   49 1
    53   27   50 1
@<TRIPOS>MOLECULE
CHEMBL162513__1
   50    52     0     0     0
SMALL
USER_CHARGES

@<TRIPOS>ATOM
      1 C1          0.0295    1.8703   -0.0511 C.3       1 <0>        -0.6374
      2 S1          0.0372    0.0563   -0.0559 S.o2      1 <0>         2.5282
      3 O1          0.8581   -0.4324    0.9960 O.2       1 <0>        -1.0250
      4 O2         -1.2830   -0.4383   -0.2340 O.2       1 <0>        -1.0253
      5 N1          0.8362   -0.3622   -1.4447 N.2       1 <0>        -1.0901
      6 C2          1.0224   -1.7030   -1.7625 C.ar      1 <0>         0.3144
      7 C3          0.5316   -2.6924   -0.9150 C.ar      1 <0>        -0.2708
      8 C4          0.7143   -4.0203   -1.2267 C.ar      1 <0>         0.0018
      9 C5          1.3936   -4.3752   -2.3959 C.ar      1 <0>        -0.2625
     10 C6          1.8852   -3.3793   -3.2448 C.ar      1 <0>        -0.0411
     11 C7          1.6943   -2.0533   -2.9304 C.ar      1 <0>        -0.1951
     12 C8          1.5915   -5.7977   -2.7328 C.2       1 <0>         0.5769
     13 O3          1.1637   -6.6629   -1.9932 O.2       1 <0>        -0.5611
     14 N2          2.2466   -6.1383   -3.8603 N.am      1 <0>        -0.7381
     15 C9          2.4432   -7.5510   -4.1949 C.3       1 <0>         0.1303
     16 C10         3.2095   -7.6606   -5.5146 C.3       1 <0>         0.0626
     17 C11         3.5274   -9.1322   -5.8006 C.3       1 <0>         0.1336
     18 N3          4.3896   -9.2013   -6.9902 N.pl3     1 <0>        -0.6290
     19 C12         5.5969   -8.3620   -7.0243 C.3       1 <0>         0.1241
     20 C13         5.1975   -6.9208   -6.6902 C.3       1 <0>         0.0418
     21 N4          4.4636   -6.9019   -5.4178 N.3       1 <0>        -0.6812
     22 C14         4.0700  -10.0413   -8.0593 C.ar      1 <0>         0.2225
     23 C15         4.8321  -10.0111   -9.2203 C.ar      1 <0>        -0.2026
     24 C16         4.5137  -10.8434  -10.2753 C.ar      1 <0>        -0.0719
     25 C17         3.4371  -11.7058  -10.1772 C.ar      1 <0>        -0.1845
     26 C18         2.6763  -11.7384   -9.0229 C.ar      1 <0>        -0.0705
     27 C19         2.9927  -10.9129   -7.9619 C.ar      1 <0>        -0.2011
     28 H1          1.0556    2.2380   -0.0524 H         1 <0>         0.1161
     29 H2         -0.4877    2.2338   -0.9390 H         1 <0>         0.1160
     30 H3         -0.4839    2.2291    0.8409 H         1 <0>         0.1032
     31 H4          0.0072   -2.4176   -0.0117 H         1 <0>         0.1074
     32 H5          0.3336   -4.7874   -0.5687 H         1 <0>         0.1147
     33 H6          2.4107   -3.6504   -4.1486 H         1 <0>         0.1023
     34 H7          2.0698   -1.2834   -3.5883 H         1 <0>         0.1161
     35 H8          2.5879   -5.4481   -4.4503 H         1 <0>         0.3929
     36 H9          3.0131   -8.0361   -3.4025 H         1 <0>         0.0753
     37 H10         1.4737   -8.0387   -4.2960 H         1 <0>         0.0707
     38 H11         2.6010   -7.2558   -6.3233 H         1 <0>         0.0501
     39 H12         4.0464   -9.5673   -4.9465 H         1 <0>         0.0742
     40 H13         2.6021   -9.6772   -5.9868 H         1 <0>         0.0879
     41 H14         6.3148   -8.7231   -6.2879 H         1 <0>         0.0704
     42 H15         6.0397   -8.3978   -8.0197 H         1 <0>         0.0851
     43 H16         6.0933   -6.3061   -6.6026 H         1 <0>         0.0880
     44 H17         4.5615   -6.5266   -7.4828 H         1 <0>         0.0363
     45 H18         4.2910   -5.9553   -5.1139 H         1 <0>         0.3476
     46 H19         5.6726   -9.3374   -9.2979 H         1 <0>         0.1209
     47 H20         5.1058  -10.8205  -11.1782 H         1 <0>         0.1184
     48 H21         3.1898  -12.3551  -11.0040 H         1 <0>         0.1157
     49 H22         1.8362  -12.4131   -8.9495 H         1 <0>         0.1194
     50 H23         2.4008  -10.9420   -7.0590 H         1 <0>         0.1224
@<TRIPOS>BOND
     1    1    2 1
     2    1   28 1
     3    1   29 1
     4    1   30 1
     5    2    3 2
     6    2    4 2
     7    2    5 1
     8    5    6 1
     9    6   11 ar
    10    6    7 ar
    11    7    8 ar
    12    7   31 1
    13    8    9 ar
    14    8   32 1
    15    9   10 ar
    16    9   12 1
    17   10   11 ar
    18   10   33 1
    19   11   34 1
    20   12   13 2
    21   12   14 am
    22   14   15 1
    23   14   35 1
    24   15   16 1
    25   15   36 1
    26   15   37 1
    27   16   21 1
    28   16   17 1
    29   16   38 1
    30   17   18 1
    31   17   39 1
    32   17   40 1
    33   18   19 1
    34   18   22 1
    35   19   20 1
    36   19   41 1
    37   19   42 1
    38   20   21 1
    39   20   43 1
    40   20   44 1
    41   21   45 1
    42   22   27 ar
    43   22   23 ar
    44   23   24 ar
    45   23   46 1
    46   24   25 ar
    47   24   47 1
    48   25   26 ar
    49   25   48 1
    50   26   27 ar
    51   26   49 1
    52   27   50 1
@<TRIPOS>MOLECULE
CHEMBL162513__2
   51    53     0     0     0
SMALL
USER_CHARGES

@<TRIPOS>ATOM
      1 C1         -0.0509    1.7510    0.0849 C.3       1 <0>        -0.6368
      2 S1         -0.0301   -0.0627    0.0584 S.o2      1 <0>         2.5325
      3 O1          0.7945   -0.5580    1.1042 O.2       1 <0>        -1.0207
      4 O2         -1.3467   -0.5646   -0.1255 O.2       1 <0>        -1.0215
      5 N1          0.7716   -0.4587   -1.3354 N.2       1 <0>        -1.0840
      6 C2          0.9674   -1.7942   -1.6693 C.ar      1 <0>         0.3231
      7 C3          0.4840   -2.7973   -0.8336 C.ar      1 <0>        -0.2683
      8 C4          0.6762   -4.1199   -1.1613 C.ar      1 <0>         0.0082
      9 C5          1.3578   -4.4558   -2.3347 C.ar      1 <0>        -0.2803
     10 C6          1.8420   -3.4463   -3.1717 C.ar      1 <0>        -0.0436
     11 C7          1.6416   -2.1256   -2.8414 C.ar      1 <0>        -0.1927
     12 C8          1.5660   -5.8727   -2.6886 C.2       1 <0>         0.5825
     13 O3          1.1446   -6.7498   -1.9594 O.2       1 <0>        -0.5421
     14 N2          2.2233   -6.1951   -3.8202 N.am      1 <0>        -0.7622
     15 C9          2.4301   -7.6022   -4.1717 C.3       1 <0>         0.1017
     16 C10         3.1968   -7.6905   -5.4928 C.3       1 <0>         0.0036
     17 C11         3.3035   -9.1568   -5.9246 C.3       1 <0>         0.1088
     18 N3          3.9269   -9.2066   -7.2561 N.pl3     1 <0>        -0.6435
     19 C12         3.3739   -8.3458   -8.3131 C.3       1 <0>         0.0988
     20 C13         3.2638   -6.9178   -7.7686 C.3       1 <0>        -0.0228
     21 N4          2.4832   -6.9280   -6.5250 N.4       1 <0>        -0.5049
     22 C14         5.0134  -10.0470   -7.5094 C.ar      1 <0>         0.1977
     23 C15         5.5927  -10.7676   -6.4727 C.ar      1 <0>        -0.1862
     24 C16         6.6665  -11.5980   -6.7268 C.ar      1 <0>        -0.0707
     25 C17         7.1654  -11.7124   -8.0114 C.ar      1 <0>        -0.1582
     26 C18         6.5911  -10.9965   -9.0458 C.ar      1 <0>        -0.0723
     27 C19         5.5134  -10.1686   -8.7997 C.ar      1 <0>        -0.1865
     28 H1          0.9725    2.1261    0.0879 H         1 <0>         0.1181
     29 H2         -0.5711    2.1214   -0.7985 H         1 <0>         0.1179
     30 H3         -0.5668    2.0954    0.9812 H         1 <0>         0.1076
     31 H4         -0.0422   -2.5371    0.0730 H         1 <0>         0.1116
     32 H5          0.3013   -4.8975   -0.5124 H         1 <0>         0.1166
     33 H6          2.3693   -3.7027   -4.0787 H         1 <0>         0.0956
     34 H7          2.0113   -1.3452   -3.4901 H         1 <0>         0.1188
     35 H8          2.5594   -5.4954   -4.4019 H         1 <0>         0.3899
     36 H9          3.0036   -8.0926   -3.3852 H         1 <0>         0.1121
     37 H10         1.4641   -8.0957   -4.2786 H         1 <0>         0.0939
     38 H11         4.1965   -7.2765   -5.3612 H         1 <0>         0.1498
     39 H12         3.9191   -9.7047   -5.2112 H         1 <0>         0.1301
     40 H13         2.3082   -9.5988   -5.9693 H         1 <0>         0.0942
     41 H14         4.0360   -8.3576   -9.1789 H         1 <0>         0.1268
     42 H15         2.3856   -8.7059   -8.5991 H         1 <0>         0.0894
     43 H16         4.2616   -6.5273   -7.5682 H         1 <0>         0.1359
     44 H17         2.7670   -6.2855   -8.5044 H         1 <0>         0.1466
     45 H18         1.5853   -7.3552   -6.6965 H         1 <0>         0.4291
     46 H19         5.2040  -10.6782   -5.4690 H         1 <0>         0.1243
     47 H20         7.1173  -12.1585   -5.9212 H         1 <0>         0.1279
     48 H21         8.0057  -12.3619   -8.2072 H         1 <0>         0.1252
     49 H22         6.9831  -11.0881  -10.0480 H         1 <0>         0.1270
     50 H23         5.0625   -9.6132   -9.6088 H         1 <0>         0.1229
     51 H24         2.3467   -5.9801   -6.2072 H         1 <0>         0.4292
@<TRIPOS>BOND
     1    1    2 1
     2    1   28 1
     3    1   29 1
     4    1   30 1
     5    2    3 2
     6    2    4 2
     7    2    5 1
     8    5    6 1
     9    6   11 ar
    10    6    7 ar
    11    7    8 ar
    12    7   31 1
    13    8    9 ar
    14    8   32 1
    15    9   10 ar
    16    9   12 1
    17   10   11 ar
    18   10   33 1
    19   11   34 1
    20   12   13 2
    21   12   14 am
    22   14   15 1
    23   14   35 1
    24   15   16 1
    25   15   36 1
    26   15   37 1
    27   16   21 1
    28   16   17 1
    29   16   38 1
    30   17   18 1
    31   17   39 1
    32   17   40 1
    33   18   19 1
    34   18   22 1
    35   19   20 1
    36   19   41 1
    37   19   42 1
    38   20   21 1
    39   20   43 1
    40   20   44 1
    41   21   45 1
    42   21   51 1
    43   22   27 ar
    44   22   23 ar
    45   23   24 ar
    46   23   46 1
    47   24   25 ar
    48   24   47 1
    49   25   26 ar
    50   25   48 1
    51   26   27 ar
    52   26   49 1
    53   27   50 1
@<TRIPOS>MOLECULE
CHEMBL162513__3
   50    52     0     0     0
SMALL
USER_CHARGES

@<TRIPOS>ATOM
      1 C1         -0.0503    1.7486    0.0889 C.3       1 <0>        -0.6375
      2 S1         -0.0298   -0.0651    0.0616 S.o2      1 <0>         2.5277
      3 O1          0.7947   -0.5610    1.1074 O.2       1 <0>        -1.0258
      4 O2         -1.3464   -0.5668   -0.1226 O.2       1 <0>        -1.0258
      5 N1          0.7720   -0.4608   -1.3322 N.2       1 <0>        -1.0907
      6 C2          0.9678   -1.7961   -1.6666 C.ar      1 <0>         0.3135
      7 C3          0.4840   -2.7994   -0.8314 C.ar      1 <0>        -0.2721
      8 C4          0.6761   -4.1220   -1.1595 C.ar      1 <0>         0.0001
      9 C5          1.3578   -4.4576   -2.3330 C.ar      1 <0>        -0.2610
     10 C6          1.8423   -3.4478   -3.1696 C.ar      1 <0>        -0.0388
     11 C7          1.6420   -2.1271   -2.8388 C.ar      1 <0>        -0.1962
     12 C8          1.5658   -5.8743   -2.6875 C.2       1 <0>         0.5735
     13 O3          1.1442   -6.7516   -1.9587 O.2       1 <0>        -0.5694
     14 N2          2.2232   -6.1963   -3.8191 N.am      1 <0>        -0.7266
     15 C9          2.4298   -7.6033   -4.1711 C.3       1 <0>         0.1335
     16 C10         3.1967   -7.6912   -5.4922 C.3       1 <0>         0.0624
     17 C11         3.3015   -9.1571   -5.9261 C.3       1 <0>         0.0907
     18 N3          3.9075   -9.2058   -7.2653 N.pl3     1 <0>        -0.6292
     19 C12         3.3302   -8.3605   -8.3215 C.3       1 <0>         0.0814
     20 C13         3.2243   -6.9259   -7.7932 C.3       1 <0>         0.0443
     21 N4          2.4833   -6.9280   -6.5248 N.3       1 <0>        -0.6755
     22 C14         5.0024  -10.0325   -7.5271 C.ar      1 <0>         0.2224
     23 C15         5.6052  -10.7377   -6.4932 C.ar      1 <0>        -0.2001
     24 C16         6.6874  -11.5546   -6.7556 C.ar      1 <0>        -0.0706
     25 C17         7.1713  -11.6707   -8.0459 C.ar      1 <0>        -0.1829
     26 C18         6.5736  -10.9701   -9.0775 C.ar      1 <0>        -0.0723
     27 C19         5.4875  -10.1558   -8.8230 C.ar      1 <0>        -0.2011
     28 H1          0.9731    2.1235    0.0922 H         1 <0>         0.1159
     29 H2         -0.5703    2.1193   -0.7945 H         1 <0>         0.1159
     30 H3         -0.5662    2.0926    0.9853 H         1 <0>         0.1027
     31 H4         -0.0422   -2.5395    0.0752 H         1 <0>         0.1063
     32 H5          0.3010   -4.8998   -0.5110 H         1 <0>         0.1135
     33 H6          2.3696   -3.7039   -4.0766 H         1 <0>         0.1071
     34 H7          2.0119   -1.3466   -3.4871 H         1 <0>         0.1156
     35 H8          2.5595   -5.4965   -4.4005 H         1 <0>         0.4057
     36 H9          3.0032   -8.0942   -3.3848 H         1 <0>         0.0695
     37 H10         1.4638   -8.0967   -4.2783 H         1 <0>         0.0629
     38 H11         4.1968   -7.2781   -5.3603 H         1 <0>         0.0929
     39 H12         3.9275   -9.7039   -5.2208 H         1 <0>         0.0913
     40 H13         2.3067   -9.6016   -5.9579 H         1 <0>         0.0665
     41 H14         3.9752   -8.3805   -9.1999 H         1 <0>         0.0871
     42 H15         2.3382   -8.7283   -8.5836 H         1 <0>         0.0615
     43 H16         4.2242   -6.5238   -7.6297 H         1 <0>         0.0787
     44 H17         2.6980   -6.3083   -8.5210 H         1 <0>         0.0895
     45 H18         1.5471   -7.2814   -6.6536 H         1 <0>         0.3456
     46 H19         5.2282  -10.6470   -5.4852 H         1 <0>         0.1226
     47 H20         7.1565  -12.1032   -5.9522 H         1 <0>         0.1200
     48 H21         8.0181  -12.3096   -8.2482 H         1 <0>         0.1163
     49 H22         6.9540  -11.0629  -10.0840 H         1 <0>         0.1188
     50 H23         5.0183   -9.6124   -9.6298 H         1 <0>         0.1203
@<TRIPOS>BOND
     1    1    2 1
     2    1   28 1
     3    1   29 1
     4    1   30 1
     5    2    3 2
     6    2    4 2
     7    2    5 1
     8    5    6 1
     9    6   11 ar
    10    6    7 ar
    11    7    8 ar
    12    7   31 1
    13    8    9 ar
    14    8   32 1
    15    9   10 ar
    16    9   12 1
    17   10   11 ar
    18   10   33 1
    19   11   34 1
    20   12   13 2
    21   12   14 am
    22   14   15 1
    23   14   35 1
    24   15   16 1
    25   15   36 1
    26   15   37 1
    27   16   21 1
    28   16   17 1
    29   16   38 1
    30   17   18 1
    31   17   39 1
    32   17   40 1
    33   18   19 1
    34   18   22 1
    35   19   20 1
    36   19   41 1
    37   19   42 1
    38   20   21 1
    39   20   43 1
    40   20   44 1
    41   21   45 1
    42   22   27 ar
    43   22   23 ar
    44   23   24 ar
    45   23   46 1
    46   24   25 ar
    47   24   47 1
    48   25   26 ar
    49   25   48 1
    50   26   27 ar
    51   26   49 1
    52   27   50 1
@<TRIPOS>MOLECULE
CHEMBL509156
   70    73     0     0     0
SMALL
USER_CHARGES

@<TRIPOS>ATOM
      1 C1         -0.9489    1.1941   -1.0764 C.3       1 <0>        -0.1824
      2 C2         -0.7976   -0.3176   -0.8956 C.3       1 <0>         0.0290
      3 H1         -1.7784   -0.7638   -0.7310 H         1 <0>         0.1403
      4 C3          0.1000   -0.5997    0.3108 C.3       1 <0>        -0.0931
      5 C4          0.1501   -2.0845    0.5635 C.ar      1 <0>        -0.1486
      6 C5         -0.7796   -2.6725    1.4022 C.ar      1 <0>        -0.0976
      7 C6         -0.7387   -4.0317    1.6373 C.ar      1 <0>        -0.1076
      8 C7          0.2422   -4.8124    1.0276 C.ar      1 <0>         0.0064
      9 C8          1.1765   -4.2144    0.1834 C.ar      1 <0>        -0.1103
     10 C9          1.1223   -2.8551   -0.0487 C.ar      1 <0>        -0.1346
     11 C10         0.2918   -6.2733    1.2766 C.ar      1 <0>        -0.0559
     12 C11        -0.6500   -6.8688    2.1194 C.ar      1 <0>        -0.1521
     13 C12        -0.6121   -8.2121    2.3548 C.ar      1 <0>        -0.0524
     14 C13         0.3727   -9.0040    1.7522 C.ar      1 <0>        -0.1428
     15 C14         1.3223   -8.4120    0.9035 C.ar      1 <0>         0.1607
     16 C15         1.2734   -7.0488    0.6654 C.ar      1 <0>        -0.2114
     17 O1          2.2793   -9.1724    0.3162 O.3       1 <0>        -0.2538
     18 C16         3.2792   -8.4868   -0.4403 C.3       1 <0>         0.0790
     19 C17         2.7671   -8.2455   -1.8617 C.3       1 <0>        -0.1460
     20 C18         3.8377   -7.5114   -2.6717 C.3       1 <0>        -0.1118
     21 C19         5.1089   -8.3611   -2.7249 C.3       1 <0>        -0.1237
     22 C20         5.6209   -8.6024   -1.3035 C.3       1 <0>        -0.1140
     23 C21         4.5504   -9.3365   -0.4935 C.3       1 <0>        -0.1154
     24 C22         0.4130  -10.4513    2.0075 C.2       1 <0>         0.5164
     25 O2         -0.4149  -10.9654    2.7475 O.co2     1 <0>        -0.6891
     26 O3          1.2745  -11.1419    1.4800 O.co2     1 <0>        -0.6606
     27 N1         -0.1924   -0.8969   -2.1023 N.4       1 <0>        -0.5051
     28 C23        -1.1094   -0.7312   -3.2379 C.3       1 <0>        -0.0451
     29 C24        -0.4790   -1.3346   -4.4947 C.3       1 <0>         0.1341
     30 H2         -0.2895   -2.3956   -4.3326 H         1 <0>         0.1319
     31 C25        -1.4197   -1.1645   -5.6597 C.ar      1 <0>        -0.1399
     32 C26        -1.4130    0.0106   -6.3877 C.ar      1 <0>        -0.1075
     33 C27        -2.2759    0.1665   -7.4563 C.ar      1 <0>        -0.1131
     34 C28        -3.1452   -0.8528   -7.7972 C.ar      1 <0>        -0.1008
     35 C29        -3.1513   -2.0282   -7.0698 C.ar      1 <0>        -0.1116
     36 C30        -2.2854   -2.1858   -6.0038 C.ar      1 <0>        -0.1008
     37 O4          0.7533   -0.6682   -4.7764 O.3       1 <0>        -0.5466
     38 H3          0.0318    1.6403   -1.2410 H         1 <0>         0.0825
     39 H4         -1.5884    1.3950   -1.9359 H         1 <0>         0.0801
     40 H5         -1.3980    1.6239   -0.1811 H         1 <0>         0.1072
     41 H6          1.1059   -0.2312    0.1094 H         1 <0>         0.0948
     42 H7         -0.3026   -0.0951    1.1891 H         1 <0>         0.1184
     43 H8         -1.5389   -2.0665    1.8743 H         1 <0>         0.1273
     44 H9         -1.4648   -4.4896    2.2926 H         1 <0>         0.1359
     45 H10         1.9389   -4.8143   -0.2913 H         1 <0>         0.1307
     46 H11         1.8427   -2.3914   -0.7063 H         1 <0>         0.1192
     47 H12        -1.4117   -6.2626    2.5871 H         1 <0>         0.1182
     48 H13        -1.3432   -8.6656    3.0077 H         1 <0>         0.1378
     49 H14         1.9979   -6.5874    0.0107 H         1 <0>         0.1250
     50 H15         3.5009   -7.5305    0.0333 H         1 <0>         0.0614
     51 H16         2.5454   -9.2019   -2.3353 H         1 <0>         0.0772
     52 H17         1.8615   -7.6402   -1.8238 H         1 <0>         0.0633
     53 H18         3.4729   -7.3395   -3.6843 H         1 <0>         0.0630
     54 H19         4.0594   -6.5550   -2.1981 H         1 <0>         0.0569
     55 H20         4.8872   -9.3175   -3.1985 H         1 <0>         0.0667
     56 H21         5.8716   -7.8381   -3.3019 H         1 <0>         0.0618
     57 H22         6.5266   -9.2078   -1.3414 H         1 <0>         0.0701
     58 H23         5.8427   -7.6461   -0.8299 H         1 <0>         0.0599
     59 H24         4.9152   -9.5084    0.5191 H         1 <0>         0.0736
     60 H25         4.3286  -10.2929   -0.9671 H         1 <0>         0.0783
     61 H26         0.6778   -0.4264   -2.3012 H         1 <0>         0.4267
     62 H27        -2.0494   -1.2395   -3.0231 H         1 <0>         0.1437
     63 H28        -1.2989    0.3299   -3.4001 H         1 <0>         0.1375
     64 H29        -0.7338    0.8069   -6.1214 H         1 <0>         0.1217
     65 H30        -2.2711    1.0849   -8.0247 H         1 <0>         0.1302
     66 H31        -3.8199   -0.7306   -8.6317 H         1 <0>         0.1306
     67 H32        -3.8307   -2.8245   -7.3359 H         1 <0>         0.1321
     68 H33        -2.2876   -3.1056   -5.4378 H         1 <0>         0.1290
     69 H34         0.6603    0.2817   -4.9317 H         1 <0>         0.3856
     70 H35        -0.0170   -1.8792   -1.9522 H         1 <0>         0.4294
@<TRIPOS>BOND
     1    1    2 1
     2    1   38 1
     3    1   39 1
     4    1   40 1
     5    2    3 1
     6    2    4 1
     7    2   27 1
     8    4    5 1
     9    4   41 1
    10    4   42 1
    11    5   10 ar
    12    5    6 ar
    13    6    7 ar
    14    6   43 1
    15    7    8 ar
    16    7   44 1
    17    8    9 ar
    18    8   11 1
    19    9   10 ar
    20    9   45 1
    21   10   46 1
    22   11   16 ar
    23   11   12 ar
    24   12   13 ar
    25   12   47 1
    26   13   14 ar
    27   13   48 1
    28   14   15 ar
    29   14   24 1
    30   15   16 ar
    31   15   17 1
    32   16   49 1
    33   17   18 1
    34   18   23 1
    35   18   19 1
    36   18   50 1
    37   19   20 1
    38   19   51 1
    39   19   52 1
    40   20   21 1
    41   20   53 1
    42   20   54 1
    43   21   22 1
    44   21   55 1
    45   21   56 1
    46   22   23 1
    47   22   57 1
    48   22   58 1
    49   23   59 1
    50   23   60 1
    51   24   25 2
    52   24   26 1
    53   27   28 1
    54   27   61 1
    55   27   70 1
    56   28   29 1
    57   28   62 1
    58   28   63 1
    59   29   30 1
    60   29   31 1
    61   29   37 1
    62   31   36 ar
    63   31   32 ar
    64   32   33 ar
    65   32   64 1
    66   33   34 ar
    67   33   65 1
    68   34   35 ar
    69   34   66 1
    70   35   36 ar
    71   35   67 1
    72   36   68 1
    73   37   69 1
@<TRIPOS>MOLECULE
CHEMBL447786
   70    72     0     0     0
SMALL
USER_CHARGES

@<TRIPOS>ATOM
      1 C1         -1.5679    1.1341    0.1823 C.3       1 <0>         0.0212
      2 O1         -1.5984   -0.2941    0.1439 O.3       1 <0>        -0.2983
      3 C2         -0.8806   -0.9007   -0.8390 C.ar      1 <0>         0.1275
      4 C3         -0.1583   -0.1382   -1.7428 C.ar      1 <0>        -0.1629
      5 C4          0.5712   -0.7565   -2.7411 C.ar      1 <0>        -0.1145
      6 C5          0.5820   -2.1354   -2.8408 C.ar      1 <0>        -0.1346
      7 C6         -0.1368   -2.9020   -1.9426 C.ar      1 <0>        -0.1474
      8 C7         -0.8652   -2.2888   -0.9358 C.ar      1 <0>         0.1150
      9 O2         -1.5680   -3.0417   -0.0478 O.3       1 <0>        -0.2978
     10 C8         -1.5059   -4.4604   -0.2079 C.3       1 <0>         0.0218
     11 C9          1.3786   -2.8042   -3.9313 C.3       1 <0>         0.0844
     12 H1          1.0057   -3.8168   -4.0847 H         1 <0>         0.1460
     13 C10         2.8527   -2.8595   -3.5253 C.3       1 <0>        -0.1348
     14 C11         3.6410   -3.6476   -4.5733 C.3       1 <0>        -0.0990
     15 C12         5.0930   -3.7021   -4.1734 C.ar      1 <0>        -0.0851
     16 C13         5.9836   -2.7717   -4.6753 C.ar      1 <0>        -0.1031
     17 C14         7.3154   -2.8215   -4.3086 C.ar      1 <0>        -0.1088
     18 C15         7.7575   -3.8019   -3.4397 C.ar      1 <0>        -0.1012
     19 C16         6.8681   -4.7326   -2.9373 C.ar      1 <0>        -0.1060
     20 C17         5.5337   -4.6798   -3.2996 C.ar      1 <0>        -0.0310
     21 Cl1         4.4145   -5.8446   -2.6637 Cl        1 <0>        -0.0650
     22 N1          1.2422   -2.0382   -5.1774 N.4       1 <0>        -0.5038
     23 C18        -0.1541   -2.0858   -5.6311 C.3       1 <0>        -0.0497
     24 C19        -0.2961   -1.2879   -6.9289 C.3       1 <0>         0.0896
     25 H2          0.3494   -1.7201   -7.6936 H         1 <0>         0.1278
     26 C20        -1.7504   -1.3375   -7.4015 C.3       1 <0>        -0.0980
     27 C21        -1.8668   -0.6569   -8.7410 C.ar      1 <0>        -0.0544
     28 C22        -2.1283    0.6992   -8.8051 C.ar      1 <0>        -0.1940
     29 C23        -2.2357    1.3293  -10.0313 C.ar      1 <0>        -0.1080
     30 C24        -2.0813    0.6021  -11.1999 C.ar      1 <0>         0.0394
     31 C25        -1.8178   -0.7644  -11.1363 C.ar      1 <0>         0.2666
     32 C26        -1.7062   -1.3888   -9.9025 C.ar      1 <0>        -0.2456
     33 N2         -1.6613   -1.5045  -12.3140 N.2       1 <0>        -1.0795
     34 S1         -1.4004   -3.1380  -12.2369 S.o2      1 <0>         2.5245
     35 O3         -0.1352   -3.2736  -11.6044 O.2       1 <0>        -1.0383
     36 O4         -2.5732   -3.6643  -11.6313 O.2       1 <0>        -1.0307
     37 C27        -1.2951   -3.6753  -13.9663 C.3       1 <0>        -0.6352
     38 O5         -2.1872    1.2205  -12.4067 O.3       1 <0>        -0.4826
     39 O6          0.0834    0.0701   -6.6972 O.3       1 <0>        -0.5445
     40 H3         -0.5407    1.4721    0.3187 H         1 <0>         0.0600
     41 H4         -1.9598    1.5311   -0.7541 H         1 <0>         0.0612
     42 H5         -2.1801    1.4884    1.0116 H         1 <0>         0.1088
     43 H6         -0.1656    0.9392   -1.6676 H         1 <0>         0.1475
     44 H7          1.1338   -0.1610   -3.4450 H         1 <0>         0.1267
     45 H8         -0.1271   -3.9789   -2.0229 H         1 <0>         0.1450
     46 H9         -1.8903   -4.7322   -1.1910 H         1 <0>         0.0591
     47 H10        -0.4712   -4.7912   -0.1181 H         1 <0>         0.0584
     48 H11        -2.1089   -4.9398    0.5632 H         1 <0>         0.1086
     49 H12         3.2494   -1.8464   -3.4584 H         1 <0>         0.0939
     50 H13         2.9445   -3.3504   -2.5565 H         1 <0>         0.1151
     51 H14         3.2443   -4.6607   -4.6403 H         1 <0>         0.0953
     52 H15         3.5492   -3.1567   -5.5421 H         1 <0>         0.0760
     53 H16         5.6389   -2.0059   -5.3544 H         1 <0>         0.1328
     54 H17         8.0109   -2.0946   -4.7013 H         1 <0>         0.1337
     55 H18         8.7983   -3.8406   -3.1539 H         1 <0>         0.1361
     56 H19         7.2137   -5.4986   -2.2589 H         1 <0>         0.1369
     57 H20         1.5102   -1.0793   -5.0137 H         1 <0>         0.4263
     58 H21        -0.4436   -3.1216   -5.8079 H         1 <0>         0.1423
     59 H22        -0.7996   -1.6536   -4.8665 H         1 <0>         0.1361
     60 H23        -2.0675   -2.3764   -7.4931 H         1 <0>         0.0847
     61 H24        -2.3853   -0.8263   -6.6779 H         1 <0>         0.0791
     62 H25        -2.2494    1.2679   -7.8950 H         1 <0>         0.1008
     63 H26        -2.4404    2.3887  -10.0778 H         1 <0>         0.1110
     64 H27        -1.4975   -2.4471   -9.8496 H         1 <0>         0.1028
     65 H28        -0.4712   -3.1582  -14.4579 H         1 <0>         0.1166
     66 H29        -1.1224   -4.7509  -14.0027 H         1 <0>         0.1028
     67 H30        -2.2286   -3.4398  -14.4774 H         1 <0>         0.1181
     68 H31        -1.3671    1.6333  -12.7104 H         1 <0>         0.3653
     69 H32        -0.4499    0.5186   -6.0267 H         1 <0>         0.3797
     70 H33         1.8397   -2.4382   -5.8852 H         1 <0>         0.4291
@<TRIPOS>BOND
     1    1    2 1
     2    1   40 1
     3    1   41 1
     4    1   42 1
     5    2    3 1
     6    3    8 ar
     7    3    4 ar
     8    4    5 ar
     9    4   43 1
    10    5    6 ar
    11    5   44 1
    12    6    7 ar
    13    6   11 1
    14    7    8 ar
    15    7   45 1
    16    8    9 1
    17    9   10 1
    18   10   46 1
    19   10   47 1
    20   10   48 1
    21   11   12 1
    22   11   13 1
    23   11   22 1
    24   13   14 1
    25   13   49 1
    26   13   50 1
    27   14   15 1
    28   14   51 1
    29   14   52 1
    30   15   20 ar
    31   15   16 ar
    32   16   17 ar
    33   16   53 1
    34   17   18 ar
    35   17   54 1
    36   18   19 ar
    37   18   55 1
    38   19   20 ar
    39   19   56 1
    40   20   21 1
    41   22   23 1
    42   22   57 1
    43   22   70 1
    44   23   24 1
    45   23   58 1
    46   23   59 1
    47   24   25 1
    48   24   26 1
    49   24   39 1
    50   26   27 1
    51   26   60 1
    52   26   61 1
    53   27   32 ar
    54   27   28 ar
    55   28   29 ar
    56   28   62 1
    57   29   30 ar
    58   29   63 1
    59   30   31 ar
    60   30   38 1
    61   31   32 ar
    62   31   33 1
    63   32   64 1
    64   33   34 1
    65   34   35 2
    66   34   36 2
    67   34   37 1
    68   37   65 1
    69   37   66 1
    70   37   67 1
    71   38   68 1
    72   39   69 1
@<TRIPOS>MOLECULE
CHEMBL447786__1
   71    73     0     0     0
SMALL
USER_CHARGES

@<TRIPOS>ATOM
      1 C1          0.7395    2.9463    1.4367 C.3       1 <0>         0.0209
      2 O1          1.0679    1.5566    1.4922 O.3       1 <0>        -0.2965
      3 C2          0.0315    0.6762    1.4775 C.ar      1 <0>         0.1303
      4 C3         -1.2724    1.1397    1.4052 C.ar      1 <0>        -0.1642
      5 C4         -2.3247    0.2434    1.3898 C.ar      1 <0>        -0.1166
      6 C5         -2.0798   -1.1161    1.4469 C.ar      1 <0>        -0.1397
      7 C6         -0.7814   -1.5851    1.5195 C.ar      1 <0>        -0.1481
      8 C7          0.2783   -0.6923    1.5291 C.ar      1 <0>         0.1171
      9 O2          1.5564   -1.1523    1.5945 O.3       1 <0>        -0.2961
     10 C8          1.7341   -2.5693    1.6448 C.3       1 <0>         0.0215
     11 C9         -3.2307   -2.0887    1.4303 C.3       1 <0>         0.0867
     12 H1         -2.9014   -3.0481    1.8293 H         1 <0>         0.1466
     13 C10        -3.7202   -2.2752   -0.0073 C.3       1 <0>        -0.1369
     14 C11        -4.8248   -3.3335   -0.0367 C.3       1 <0>        -0.0969
     15 C12        -5.2165   -3.6111   -1.4652 C.ar      1 <0>        -0.0893
     16 C13        -6.2877   -2.9448   -2.0303 C.ar      1 <0>        -0.1037
     17 C14        -6.6471   -3.1993   -3.3404 C.ar      1 <0>        -0.1086
     18 C15        -5.9355   -4.1204   -4.0866 C.ar      1 <0>        -0.0981
     19 C16        -4.8644   -4.7872   -3.5228 C.ar      1 <0>        -0.1044
     20 C17        -4.5006   -4.5286   -2.2130 C.ar      1 <0>        -0.0310
     21 Cl1        -3.1511   -5.3610   -1.5061 Cl        1 <0>        -0.0649
     22 N1         -4.3265   -1.5648    2.2566 N.4       1 <0>        -0.5044
     23 C18        -3.9010   -1.5182    3.6618 C.3       1 <0>        -0.0507
     24 C19        -5.0007   -0.8716    4.5065 C.3       1 <0>         0.0883
     25 H2         -5.9154   -1.4585    4.4231 H         1 <0>         0.1285
     26 C20        -4.5575   -0.8230    5.9701 C.3       1 <0>        -0.1073
     27 C21        -5.6868   -0.2997    6.8198 C.ar      1 <0>        -0.0690
     28 C22        -5.8075    1.0589    7.0458 C.ar      1 <0>        -0.1012
     29 C23        -6.8419    1.5449    7.8242 C.ar      1 <0>        -0.1147
     30 C24        -7.7609    0.6703    8.3801 C.ar      1 <0>         0.0922
     31 C25        -7.6400   -0.6989    8.1528 C.ar      1 <0>         0.1374
     32 C26        -6.6027   -1.1788    7.3665 C.ar      1 <0>        -0.1678
     33 N2         -8.5654   -1.5874    8.7124 N.pl3     1 <0>        -1.0489
     34 S1         -8.0964   -3.1217    9.1229 S.o2      1 <0>         2.6093
     35 O3         -9.2393   -3.6971    9.7409 O.2       1 <0>        -0.9413
     36 O4         -7.5668   -3.6718    7.9245 O.2       1 <0>        -0.9535
     37 C27        -6.7741   -2.8940   10.3436 C.3       1 <0>        -0.6672
     38 O5         -8.7785    1.1469    9.1463 O.3       1 <0>        -0.4896
     39 O6         -5.2426    0.4565    4.0377 O.3       1 <0>        -0.5483
     40 H3          1.6553    3.5371    1.4555 H         1 <0>         0.1109
     41 H4          0.1920    3.1538    0.5173 H         1 <0>         0.0613
     42 H5          0.1206    3.2079    2.2950 H         1 <0>         0.0604
     43 H6         -1.4665    2.2012    1.3613 H         1 <0>         0.1479
     44 H7         -3.3405    0.6060    1.3335 H         1 <0>         0.1252
     45 H8         -0.5928   -2.6476    1.5644 H         1 <0>         0.1454
     46 H9          2.7982   -2.8004    1.6946 H         1 <0>         0.1107
     47 H10         1.2342   -2.9670    2.5279 H         1 <0>         0.0583
     48 H11         1.3056   -3.0212    0.7502 H         1 <0>         0.0596
     49 H12        -4.1123   -1.3302   -0.3831 H         1 <0>         0.0949
     50 H13        -2.8898   -2.5992   -0.6347 H         1 <0>         0.1173
     51 H14        -4.4610   -4.2513    0.4252 H         1 <0>         0.0937
     52 H15        -5.6921   -2.9687    0.5135 H         1 <0>         0.0744
     53 H16        -6.8442   -2.2254   -1.4478 H         1 <0>         0.1312
     54 H17        -7.4844   -2.6787   -3.7813 H         1 <0>         0.1344
     55 H18        -6.2170   -4.3191   -5.1101 H         1 <0>         0.1379
     56 H19        -4.3088   -5.5069   -4.1056 H         1 <0>         0.1385
     57 H20        -4.5665   -0.6350    1.9468 H         1 <0>         0.4275
     58 H21        -3.7165   -2.5312    4.0194 H         1 <0>         0.1452
     59 H22        -2.9863   -0.9312    3.7452 H         1 <0>         0.1394
     60 H23        -4.2879   -1.8257    6.3015 H         1 <0>         0.0983
     61 H24        -3.6947   -0.1640    6.0667 H         1 <0>         0.0922
     62 H25        -5.0917    1.7424    6.6135 H         1 <0>         0.1291
     63 H26        -6.9331    2.6067    7.9991 H         1 <0>         0.1386
     64 H27        -6.5087   -2.2392    7.1847 H         1 <0>         0.1646
     65 H28        -9.4815   -1.3046    8.8597 H         1 <0>         0.4307
     66 H29        -7.1630   -2.3478   11.2029 H         1 <0>         0.1360
     67 H30        -6.4073   -3.8679   10.6678 H         1 <0>         0.1382
     68 H31        -5.9574   -2.3295    9.8936 H         1 <0>         0.1292
     69 H32        -9.5795    1.3598    8.6482 H         1 <0>         0.3939
     70 H33        -4.4700    1.0363    4.0828 H         1 <0>         0.3863
     71 H34        -5.1315   -2.1668    2.1687 H         1 <0>         0.4287
@<TRIPOS>BOND
     1    1    2 1
     2    1   40 1
     3    1   41 1
     4    1   42 1
     5    2    3 1
     6    3    8 ar
     7    3    4 ar
     8    4    5 ar
     9    4   43 1
    10    5    6 ar
    11    5   44 1
    12    6    7 ar
    13    6   11 1
    14    7    8 ar
    15    7   45 1
    16    8    9 1
    17    9   10 1
    18   10   46 1
    19   10   47 1
    20   10   48 1
    21   11   12 1
    22   11   13 1
    23   11   22 1
    24   13   14 1
    25   13   49 1
    26   13   50 1
    27   14   15 1
    28   14   51 1
    29   14   52 1
    30   15   20 ar
    31   15   16 ar
    32   16   17 ar
    33   16   53 1
    34   17   18 ar
    35   17   54 1
    36   18   19 ar
    37   18   55 1
    38   19   20 ar
    39   19   56 1
    40   20   21 1
    41   22   23 1
    42   22   57 1
    43   22   71 1
    44   23   24 1
    45   23   58 1
    46   23   59 1
    47   24   25 1
    48   24   26 1
    49   24   39 1
    50   26   27 1
    51   26   60 1
    52   26   61 1
    53   27   32 ar
    54   27   28 ar
    55   28   29 ar
    56   28   62 1
    57   29   30 ar
    58   29   63 1
    59   30   31 ar
    60   30   38 1
    61   31   32 ar
    62   31   33 1
    63   32   64 1
    64   33   34 1
    65   33   65 1
    66   34   35 2
    67   34   36 2
    68   34   37 1
    69   37   66 1
    70   37   67 1
    71   37   68 1
    72   38   69 1
    73   39   70 1
@<TRIPOS>MOLECULE
CHEMBL1082828
   65    69     0     0     0
SMALL
USER_CHARGES

@<TRIPOS>ATOM
      1 C1         -0.0173    1.4248    0.0099 C.3       1 <0>         0.0206
      2 O1          0.0021   -0.0041    0.0020 O.3       1 <0>        -0.3075
      3 C2          0.6247   -0.6173    1.0397 C.ar      1 <0>         0.1759
      4 C3          1.2014    0.1449    2.0500 C.ar      1 <0>        -0.2216
      5 C4          1.8315   -0.4700    3.1012 C.ar      1 <0>        -0.0094
      6 C5          1.8938   -1.8679    3.1563 C.ar      1 <0>        -0.2269
      7 C6          1.3115   -2.6307    2.1364 C.ar      1 <0>        -0.0345
      8 C7          0.6791   -2.0060    1.0923 C.ar      1 <0>        -0.1661
      9 C8          2.5678   -2.5317    4.2796 C.2       1 <0>         0.4090
     10 O2          3.0718   -1.8691    5.1617 O.2       1 <0>        -0.4424
     11 C9          2.6333   -4.0363    4.3363 C.3       1 <0>        -0.1476
     12 C10         1.3568   -4.5803    4.9843 C.3       1 <0>        -0.1368
     13 C11         1.4642   -6.1015    5.1111 C.3       1 <0>        -0.0031
     14 N1          2.6227   -6.4461    5.9439 N.4       1 <0>        -0.3798
     15 C12         3.8570   -5.9905    5.2933 C.3       1 <0>        -0.0120
     16 C13         3.8417   -4.4650    5.1735 C.3       1 <0>        -0.1350
     17 C14         2.6763   -7.9027    6.1269 C.3       1 <0>        -0.0430
     18 C15         3.8079   -8.2538    7.0950 C.3       1 <0>         0.0845
     19 C16         3.9448   -9.7747    7.1894 C.3       1 <0>         0.0289
     20 O3          5.0744  -10.1018    8.0012 O.3       1 <0>        -0.2957
     21 C17         5.3386  -11.4213    8.1877 C.ar      1 <0>         0.1791
     22 C18         4.5340  -12.3814    7.5992 C.ar      1 <0>        -0.2456
     23 C19         4.8029  -13.7268    7.7890 C.ar      1 <0>        -0.0443
     24 C20         5.8708  -14.1270    8.5639 C.ar      1 <0>        -0.1712
     25 C21         6.6926  -13.1782    9.1655 C.ar      1 <0>         0.1819
     26 C22         6.4270  -11.8155    8.9698 C.ar      1 <0>        -0.1299
     27 C23         7.4607  -11.0758    9.7161 C.ar      1 <0>        -0.0924
     28 C24         7.7204   -9.7205    9.9069 C.ar      1 <0>        -0.0604
     29 C25         8.7928   -9.3311   10.6801 C.ar      1 <0>        -0.1467
     30 C26         9.6127  -10.2826   11.2672 C.ar      1 <0>        -0.0825
     31 C27         9.3675  -11.6267   11.0862 C.ar      1 <0>        -0.1381
     32 C28         8.2891  -12.0397   10.3098 C.ar      1 <0>         0.1336
     33 N2          7.8071  -13.2934    9.9769 N.pl3     1 <0>        -0.6122
     34 H1          8.2017  -14.1327   10.2612 H         1 <0>         0.4226
     35 O4          3.5115   -7.7211    8.3874 O.3       1 <0>        -0.5411
     36 H2          1.0053    1.8021    0.0021 H         1 <0>         0.0629
     37 H3         -0.5445    1.7859   -0.8732 H         1 <0>         0.1099
     38 H4         -0.5275    1.7763    0.9067 H         1 <0>         0.0627
     39 H5          1.1532    1.2229    2.0064 H         1 <0>         0.1403
     40 H6          2.2793    0.1228    3.8851 H         1 <0>         0.1388
     41 H7          1.3568   -3.7090    2.1742 H         1 <0>         0.1345
     42 H8          0.2262   -2.5934    0.3073 H         1 <0>         0.1414
     43 H9          2.7294   -4.4352    3.3265 H         1 <0>         0.1163
     44 H10         1.2351   -4.1403    5.9741 H         1 <0>         0.0967
     45 H11         0.4971   -4.3265    4.3642 H         1 <0>         0.1215
     46 H12         0.5569   -6.4921    5.5720 H         1 <0>         0.1365
     47 H13         1.5856   -6.5405    4.1209 H         1 <0>         0.1337
     48 H14         4.7163   -6.2992    5.8887 H         1 <0>         0.1365
     49 H15         3.9275   -6.4318    4.2992 H         1 <0>         0.1329
     50 H16         4.7582   -4.1288    4.6886 H         1 <0>         0.1172
     51 H17         3.7716   -4.0226    6.1672 H         1 <0>         0.1018
     52 H18         1.7279   -8.2529    6.5343 H         1 <0>         0.1405
     53 H19         2.8584   -8.3832    5.1656 H         1 <0>         0.1449
     54 H20         4.7426   -7.8267    6.7316 H         1 <0>         0.1340
     55 H21         3.0430  -10.1937    7.6358 H         1 <0>         0.0785
     56 H22         4.0826  -10.1898    6.1910 H         1 <0>         0.0824
     57 H23         3.6940  -12.0807    6.9906 H         1 <0>         0.1279
     58 H24         4.1698  -14.4694    7.3261 H         1 <0>         0.1351
     59 H25         6.0699  -15.1791    8.7047 H         1 <0>         0.1304
     60 H26         7.0837   -8.9773    9.4502 H         1 <0>         0.1253
     61 H27         8.9954   -8.2807   10.8290 H         1 <0>         0.1276
     62 H28        10.4510   -9.9678   11.8711 H         1 <0>         0.1320
     63 H29        10.0125  -12.3599   11.5476 H         1 <0>         0.1270
     64 H30         2.6912   -8.0580    8.7731 H         1 <0>         0.3903
     65 H31         2.5334   -5.9992    6.8441 H         1 <0>         0.4301
@<TRIPOS>BOND
     1    1    2 1
     2    1   36 1
     3    1   37 1
     4    1   38 1
     5    2    3 1
     6    3    8 ar
     7    3    4 ar
     8    4    5 ar
     9    4   39 1
    10    5    6 ar
    11    5   40 1
    12    6    7 ar
    13    6    9 1
    14    7    8 ar
    15    7   41 1
    16    8   42 1
    17    9   10 2
    18    9   11 1
    19   11   16 1
    20   11   12 1
    21   11   43 1
    22   12   13 1
    23   12   44 1
    24   12   45 1
    25   13   14 1
    26   13   46 1
    27   13   47 1
    28   14   15 1
    29   14   17 1
    30   14   65 1
    31   15   16 1
    32   15   48 1
    33   15   49 1
    34   16   50 1
    35   16   51 1
    36   17   18 1
    37   17   52 1
    38   17   53 1
    39   18   19 1
    40   18   35 1
    41   18   54 1
    42   19   20 1
    43   19   55 1
    44   19   56 1
    45   20   21 1
    46   21   26 ar
    47   21   22 ar
    48   22   23 ar
    49   22   57 1
    50   23   24 ar
    51   23   58 1
    52   24   25 ar
    53   24   59 1
    54   25   33 1
    55   25   26 ar
    56   26   27 1
    57   27   32 ar
    58   27   28 ar
    59   28   29 ar
    60   28   60 1
    61   29   30 ar
    62   29   61 1
    63   30   31 ar
    64   30   62 1
    65   31   32 ar
    66   31   63 1
    67   32   33 1
    68   33   34 1
    69   35   64 1
@<TRIPOS>MOLECULE
CHEMBL1082828__1
   65    69     0     0     0
SMALL
USER_CHARGES

@<TRIPOS>ATOM
      1 C1         -0.6710    0.8293   -0.5231 C.3       1 <0>         0.0206
      2 O1         -0.5889   -0.5942   -0.4289 O.3       1 <0>        -0.3075
      3 C2          0.1016   -1.1031    0.6222 C.ar      1 <0>         0.1761
      4 C3          0.6845   -0.2454    1.5489 C.ar      1 <0>        -0.2217
      5 C4          1.3830   -0.7546    2.6133 C.ar      1 <0>        -0.0093
      6 C5          1.5090   -2.1409    2.7662 C.ar      1 <0>        -0.2271
      7 C6          0.9202   -3.0001    1.8302 C.ar      1 <0>        -0.0343
      8 C7          0.2192   -2.4807    0.7723 C.ar      1 <0>        -0.1659
      9 C8          2.2565   -2.6918    3.9040 C.2       1 <0>         0.4096
     10 O2          2.7661   -1.9457    4.7132 O.2       1 <0>        -0.4435
     11 C9          2.3905   -4.1840    4.0660 C.3       1 <0>        -0.1476
     12 C10         1.1665   -4.7307    4.8065 C.3       1 <0>        -0.1353
     13 C11         1.3459   -6.2326    5.0377 C.3       1 <0>        -0.0100
     14 N1          2.5511   -6.4671    5.8420 N.4       1 <0>        -0.3794
     15 C12         3.7369   -6.0104    5.1071 C.3       1 <0>        -0.0041
     16 C13         3.6496   -4.4999    4.8785 C.3       1 <0>        -0.1364
     17 C14         2.6763   -7.9027    6.1269 C.3       1 <0>        -0.0434
     18 C15         1.5219   -8.3464    7.0277 C.3       1 <0>         0.0853
     19 C16         1.6491   -9.8429    7.3199 C.3       1 <0>         0.0287
     20 O3          0.5104  -10.2815    8.0635 O.3       1 <0>        -0.2956
     21 C17         0.4667  -11.5952    8.4069 C.ar      1 <0>         0.1791
     22 C18         1.4977  -12.4437    8.0428 C.ar      1 <0>        -0.2455
     23 C19         1.4536  -13.7832    8.3927 C.ar      1 <0>        -0.0443
     24 C20         0.3866  -14.2881    9.1050 C.ar      1 <0>        -0.1711
     25 C21        -0.6613  -13.4527    9.4810 C.ar      1 <0>         0.1819
     26 C22        -0.6164  -12.0948    9.1341 C.ar      1 <0>        -0.1298
     27 C23        -1.8451  -11.4840    9.6726 C.ar      1 <0>        -0.0922
     28 C24        -2.3634  -10.1912    9.6484 C.ar      1 <0>        -0.0605
     29 C25        -3.5703   -9.9258   10.2586 C.ar      1 <0>        -0.1468
     30 C26        -4.2687  -10.9399   10.8958 C.ar      1 <0>        -0.0826
     31 C27        -3.7672  -12.2232   10.9278 C.ar      1 <0>        -0.1380
     32 C28        -2.5508  -12.5112   10.3166 C.ar      1 <0>         0.1336
     33 N2         -1.8307  -13.6854   10.1825 N.pl3     1 <0>        -0.6122
     34 H1         -2.1011  -14.5456   10.5400 H         1 <0>         0.4226
     35 O4          1.5675   -7.6159    8.2550 O.3       1 <0>        -0.5421
     36 H2          0.3329    1.2466   -0.6025 H         1 <0>         0.0628
     37 H3         -1.2488    1.1023   -1.4061 H         1 <0>         0.1098
     38 H4         -1.1595    1.2249    0.3674 H         1 <0>         0.0628
     39 H5          0.5870    0.8236    1.4299 H         1 <0>         0.1402
     40 H6          1.8356   -0.0877    3.3322 H         1 <0>         0.1387
     41 H7          1.0145   -4.0700    1.9436 H         1 <0>         0.1347
     42 H8         -0.2387   -3.1425    0.0521 H         1 <0>         0.1416
     43 H9          2.4632   -4.6522    3.0844 H         1 <0>         0.1162
     44 H10         1.0656   -4.2241    5.7663 H         1 <0>         0.0975
     45 H11         0.2721   -4.5588    4.2077 H         1 <0>         0.1213
     46 H12         0.4761   -6.6251    5.5646 H         1 <0>         0.1374
     47 H13         1.4464   -6.7382    4.0773 H         1 <0>         0.1341
     48 H14         4.6323   -6.2388    5.6852 H         1 <0>         0.1352
     49 H15         3.7865   -6.5207    4.1452 H         1 <0>         0.1322
     50 H16         4.5300   -4.1631    4.3312 H         1 <0>         0.1173
     51 H17         3.6002   -3.9886    5.8399 H         1 <0>         0.1009
     52 H18         2.6439   -8.4628    5.1924 H         1 <0>         0.1454
     53 H19         3.6240   -8.0918    6.6311 H         1 <0>         0.1401
     54 H20         0.5741   -8.1536    6.5252 H         1 <0>         0.1343
     55 H21         1.7037  -10.3931    6.3805 H         1 <0>         0.0827
     56 H22         2.5538  -10.0241    7.9002 H         1 <0>         0.0783
     57 H23         2.3388  -12.0604    7.4841 H         1 <0>         0.1279
     58 H24         2.2625  -14.4382    8.1044 H         1 <0>         0.1352
     59 H25         0.3636  -15.3345    9.3716 H         1 <0>         0.1304
     60 H26        -1.8209   -9.3993    9.1533 H         1 <0>         0.1252
     61 H27        -3.9733   -8.9240   10.2406 H         1 <0>         0.1274
     62 H28        -5.2135  -10.7222   11.3716 H         1 <0>         0.1319
     63 H29        -4.3190  -13.0059   11.4271 H         1 <0>         0.1270
     64 H30         2.3849   -7.7402    8.7566 H         1 <0>         0.3904
     65 H31         2.4787   -5.9589    6.7107 H         1 <0>         0.4297
@<TRIPOS>BOND
     1    1    2 1
     2    1   36 1
     3    1   37 1
     4    1   38 1
     5    2    3 1
     6    3    8 ar
     7    3    4 ar
     8    4    5 ar
     9    4   39 1
    10    5    6 ar
    11    5   40 1
    12    6    7 ar
    13    6    9 1
    14    7    8 ar
    15    7   41 1
    16    8   42 1
    17    9   10 2
    18    9   11 1
    19   11   16 1
    20   11   12 1
    21   11   43 1
    22   12   13 1
    23   12   44 1
    24   12   45 1
    25   13   14 1
    26   13   46 1
    27   13   47 1
    28   14   15 1
    29   14   17 1
    30   14   65 1
    31   15   16 1
    32   15   48 1
    33   15   49 1
    34   16   50 1
    35   16   51 1
    36   17   18 1
    37   17   52 1
    38   17   53 1
    39   18   19 1
    40   18   35 1
    41   18   54 1
    42   19   20 1
    43   19   55 1
    44   19   56 1
    45   20   21 1
    46   21   26 ar
    47   21   22 ar
    48   22   23 ar
    49   22   57 1
    50   23   24 ar
    51   23   58 1
    52   24   25 ar
    53   24   59 1
    54   25   33 1
    55   25   26 ar
    56   26   27 1
    57   27   32 ar
    58   27   28 ar
    59   28   29 ar
    60   28   60 1
    61   29   30 ar
    62   29   61 1
    63   30   31 ar
    64   30   62 1
    65   31   32 ar
    66   31   63 1
    67   32   33 1
    68   33   34 1
    69   35   64 1
@<TRIPOS>MOLECULE
CHEMBL423
   52    53     0     0     0
SMALL
USER_CHARGES

@<TRIPOS>ATOM
      1 C1         -0.0187    1.5258    0.0104 C.3       1 <0>        -0.1852
      2 C2          0.0021   -0.0041    0.0020 C.3       1 <0>         0.0239
      3 C3          0.7421   -0.5109    1.2415 C.3       1 <0>        -0.1868
      4 N1         -1.3761   -0.5125    0.0124 N.4       1 <0>        -0.5024
      5 C4         -1.3591   -1.9758   -0.1163 C.3       1 <0>        -0.0453
      6 C5         -2.7945   -2.5054   -0.1054 C.3       1 <0>         0.0866
      7 C6         -2.7738   -4.0352   -0.1138 C.3       1 <0>         0.0299
      8 O1         -4.1082   -4.5304    0.0137 O.3       1 <0>        -0.3023
      9 C7         -4.2671   -5.8800    0.0235 C.ar      1 <0>         0.1160
     10 C8         -3.1609   -6.7107   -0.0816 C.ar      1 <0>        -0.2056
     11 C9         -3.3251   -8.0823   -0.0709 C.ar      1 <0>        -0.0736
     12 C10        -4.5906   -8.6274    0.0439 C.ar      1 <0>        -0.1079
     13 C11        -5.6947   -7.8017    0.1483 C.ar      1 <0>        -0.0707
     14 C12        -5.5352   -6.4295    0.1443 C.ar      1 <0>        -0.1405
     15 C13        -4.7668  -10.1240    0.0548 C.3       1 <0>        -0.0789
     16 C14        -4.6939  -10.6357    1.4948 C.3       1 <0>         0.0686
     17 O2         -4.8610  -12.0548    1.5051 O.3       1 <0>        -0.3855
     18 C15        -4.8090  -12.6367    2.8093 C.3       1 <0>         0.0952
     19 C16        -4.9985  -14.1510    2.7000 C.3       1 <0>        -0.1578
     20 C17        -6.2387  -14.7572    3.3599 C.3       1 <0>        -0.1762
     21 C18        -4.8577  -14.9749    3.9815 C.3       1 <0>        -0.1729
     22 O3         -3.4857   -2.0320   -1.2631 O.3       1 <0>        -0.5429
     23 H1          1.0039    1.9031    0.0027 H         1 <0>         0.1083
     24 H2         -0.5459    1.8868   -0.8726 H         1 <0>         0.0831
     25 H3         -0.5289    1.8773    0.9072 H         1 <0>         0.0829
     26 H4          0.5123   -0.3556   -0.8948 H         1 <0>         0.1393
     27 H5          0.7568   -1.6008    1.2356 H         1 <0>         0.0801
     28 H6          1.7647   -0.1336    1.2338 H         1 <0>         0.1081
     29 H7          0.2319   -0.1594    2.1383 H         1 <0>         0.0835
     30 H8         -1.8225   -0.2564    0.8803 H         1 <0>         0.4284
     31 H9         -0.8769   -2.2525   -1.0538 H         1 <0>         0.1400
     32 H10        -0.8062   -2.4075    0.7180 H         1 <0>         0.1466
     33 H11        -3.3047   -2.1538    0.7914 H         1 <0>         0.1343
     34 H12        -2.3435   -4.3876   -1.0513 H         1 <0>         0.0768
     35 H13        -2.1714   -4.3950    0.7203 H         1 <0>         0.0807
     36 H14        -2.1723   -6.2854   -0.1720 H         1 <0>         0.1244
     37 H15        -2.4643   -8.7294   -0.1527 H         1 <0>         0.1292
     38 H16        -6.6821   -8.2299    0.2375 H         1 <0>         0.1357
     39 H17        -6.3975   -5.7849    0.2303 H         1 <0>         0.1344
     40 H18        -5.7366  -10.3788   -0.3727 H         1 <0>         0.0847
     41 H19        -3.9764  -10.5872   -0.5359 H         1 <0>         0.0830
     42 H20        -3.7241  -10.3809    1.9223 H         1 <0>         0.0487
     43 H21        -5.4843  -10.1725    2.0855 H         1 <0>         0.0502
     44 H22        -3.8416  -12.4235    3.2640 H         1 <0>         0.0531
     45 H23        -5.6018  -12.2150    3.4272 H         1 <0>         0.0510
     46 H24        -4.6510  -14.6024    1.7707 H         1 <0>         0.1143
     47 H25        -6.9195  -14.0773    3.8719 H         1 <0>         0.0952
     48 H26        -6.7074  -15.6076    2.8647 H         1 <0>         0.0981
     49 H27        -4.4179  -15.9685    3.8952 H         1 <0>         0.1003
     50 H28        -4.6300  -14.4381    4.9024 H         1 <0>         0.0954
     51 H29        -3.0863   -2.3073   -2.0996 H         1 <0>         0.3905
     52 H30        -1.8879   -0.1129   -0.7598 H         1 <0>         0.4338
@<TRIPOS>BOND
     1    1    2 1
     2    1   23 1
     3    1   24 1
     4    1   25 1
     5    2    3 1
     6    2    4 1
     7    2   26 1
     8    3   27 1
     9    3   28 1
    10    3   29 1
    11    4    5 1
    12    4   30 1
    13    4   52 1
    14    5    6 1
    15    5   31 1
    16    5   32 1
    17    6    7 1
    18    6   22 1
    19    6   33 1
    20    7    8 1
    21    7   34 1
    22    7   35 1
    23    8    9 1
    24    9   14 ar
    25    9   10 ar
    26   10   11 ar
    27   10   36 1
    28   11   12 ar
    29   11   37 1
    30   12   13 ar
    31   12   15 1
    32   13   14 ar
    33   13   38 1
    34   14   39 1
    35   15   16 1
    36   15   40 1
    37   15   41 1
    38   16   17 1
    39   16   42 1
    40   16   43 1
    41   17   18 1
    42   18   19 1
    43   18   44 1
    44   18   45 1
    45   19   21 1
    46   19   20 1
    47   19   46 1
    48   20   21 1
    49   20   47 1
    50   20   48 1
    51   21   49 1
    52   21   50 1
    53   22   51 1
@<TRIPOS>MOLECULE
CHEMBL423__1
   52    53     0     0     0
SMALL
USER_CHARGES

@<TRIPOS>ATOM
      1 C1         -0.0187    1.5258    0.0104 C.3       1 <0>        -0.1852
      2 C2          0.0021   -0.0041    0.0020 C.3       1 <0>         0.0237
      3 C3          0.7421   -0.5109    1.2415 C.3       1 <0>        -0.1864
      4 N1         -1.3761   -0.5125    0.0124 N.4       1 <0>        -0.5019
      5 C4         -1.3591   -1.9758   -0.1163 C.3       1 <0>        -0.0456
      6 C5         -2.7945   -2.5054   -0.1054 C.3       1 <0>         0.0863
      7 C6         -2.7769   -4.0294   -0.2395 C.3       1 <0>         0.0300
      8 O1         -4.1170   -4.5137   -0.3464 O.3       1 <0>        -0.3022
      9 C7         -4.2793   -5.8570   -0.4731 C.ar      1 <0>         0.1161
     10 C8         -3.1718   -6.6923   -0.4883 C.ar      1 <0>        -0.2056
     11 C9         -3.3395   -8.0575   -0.6167 C.ar      1 <0>        -0.0736
     12 C10        -4.6098   -8.5916   -0.7305 C.ar      1 <0>        -0.1079
     13 C11        -5.7152   -7.7611   -0.7161 C.ar      1 <0>        -0.0707
     14 C12        -5.5531   -6.3958   -0.5817 C.ar      1 <0>        -0.1404
     15 C13        -4.7897  -10.0812   -0.8710 C.3       1 <0>        -0.0788
     16 C14        -4.9261  -10.7115    0.5165 C.3       1 <0>         0.0685
     17 O2         -5.0968  -12.1240    0.3833 O.3       1 <0>        -0.3856
     18 C15        -5.2345  -12.8127    1.6278 C.3       1 <0>         0.0951
     19 C16        -5.4104  -14.3097    1.3654 C.3       1 <0>        -0.1578
     20 C17        -6.7342  -14.9502    1.7876 C.3       1 <0>        -0.1762
     21 C18        -5.4576  -15.2390    2.5800 C.3       1 <0>        -0.1729
     22 O3         -3.4268   -2.1426    1.1237 O.3       1 <0>        -0.5433
     23 H1          1.0039    1.9031    0.0027 H         1 <0>         0.1083
     24 H2         -0.5459    1.8868   -0.8726 H         1 <0>         0.0831
     25 H3         -0.5289    1.8773    0.9072 H         1 <0>         0.0829
     26 H4          0.5123   -0.3556   -0.8948 H         1 <0>         0.1399
     27 H5          0.7568   -1.6008    1.2356 H         1 <0>         0.0795
     28 H6          1.7647   -0.1336    1.2338 H         1 <0>         0.1081
     29 H7          0.2319   -0.1594    2.1383 H         1 <0>         0.0833
     30 H8         -1.8225   -0.2564    0.8803 H         1 <0>         0.4313
     31 H9         -0.8769   -2.2525   -1.0538 H         1 <0>         0.1467
     32 H10        -0.8062   -2.4075    0.7180 H         1 <0>         0.1402
     33 H11        -3.3474   -2.0736   -0.9397 H         1 <0>         0.1356
     34 H12        -2.2171   -4.3091   -1.1320 H         1 <0>         0.0815
     35 H13        -2.3018   -4.4659    0.6390 H         1 <0>         0.0760
     36 H14        -2.1793   -6.2756   -0.4002 H         1 <0>         0.1244
     37 H15        -2.4776   -8.7082   -0.6286 H         1 <0>         0.1292
     38 H16        -6.7063   -8.1806   -0.8055 H         1 <0>         0.1357
     39 H17        -6.4171   -5.7480   -0.5661 H         1 <0>         0.1344
     40 H18        -5.6886  -10.2853   -1.4527 H         1 <0>         0.0847
     41 H19        -3.9239  -10.5054   -1.3793 H         1 <0>         0.0830
     42 H20        -4.0273  -10.5073    1.0982 H         1 <0>         0.0487
     43 H21        -5.7920  -10.2872    1.0247 H         1 <0>         0.0503
     44 H22        -4.3421  -12.6522    2.2326 H         1 <0>         0.0531
     45 H23        -6.1068  -12.4320    2.1591 H         1 <0>         0.0511
     46 H24        -4.9340  -14.6876    0.4608 H         1 <0>         0.1143
     47 H25        -7.4798  -14.3051    2.2523 H         1 <0>         0.0952
     48 H26        -7.1290  -15.7496    1.1606 H         1 <0>         0.0980
     49 H27        -5.0126  -16.2284    2.4743 H         1 <0>         0.1003
     50 H28        -5.3634  -14.7838    3.5659 H         1 <0>         0.0955
     51 H29        -2.9873   -2.4932    1.9105 H         1 <0>         0.3896
     52 H30        -1.8879   -0.1129   -0.7598 H         1 <0>         0.4308
@<TRIPOS>BOND
     1    1    2 1
     2    1   23 1
     3    1   24 1
     4    1   25 1
     5    2    3 1
     6    2    4 1
     7    2   26 1
     8    3   27 1
     9    3   28 1
    10    3   29 1
    11    4    5 1
    12    4   30 1
    13    4   52 1
    14    5    6 1
    15    5   31 1
    16    5   32 1
    17    6    7 1
    18    6   22 1
    19    6   33 1
    20    7    8 1
    21    7   34 1
    22    7   35 1
    23    8    9 1
    24    9   14 ar
    25    9   10 ar
    26   10   11 ar
    27   10   36 1
    28   11   12 ar
    29   11   37 1
    30   12   13 ar
    31   12   15 1
    32   13   14 ar
    33   13   38 1
    34   14   39 1
    35   15   16 1
    36   15   40 1
    37   15   41 1
    38   16   17 1
    39   16   42 1
    40   16   43 1
    41   17   18 1
    42   18   19 1
    43   18   44 1
    44   18   45 1
    45   19   21 1
    46   19   20 1
    47   19   46 1
    48   20   21 1
    49   20   47 1
    50   20   48 1
    51   21   49 1
    52   21   50 1
    53   22   51 1
@<TRIPOS>MOLECULE
CHEMBL43968
   55    57     0     0     0
SMALL
USER_CHARGES

@<TRIPOS>ATOM
      1 C1         -0.0167    1.3786    0.0096 C.ar      1 <0>        -0.0392
      2 C2          1.1635    2.0954    0.0022 C.ar      1 <0>        -0.1676
      3 C3          2.3878    1.4339   -0.0136 C.ar      1 <0>         0.2044
      4 C4          2.4026    0.0400   -0.0245 C.ar      1 <0>        -0.1689
      5 C5          1.2143   -0.6781   -0.0150 C.ar      1 <0>         0.1795
      6 C6          0.0021   -0.0041    0.0020 C.ar      1 <0>        -0.2186
      7 O1          1.2389   -2.0380   -0.0224 O.3       1 <0>        -0.2872
      8 C7         -0.0224   -2.7096   -0.0118 C.3       1 <0>         0.0278
      9 C8          0.2054   -4.2226   -0.0223 C.3       1 <0>         0.0856
     10 C9         -1.1409   -4.9402   -0.1368 C.3       1 <0>        -0.0408
     11 N1         -0.9222   -6.3928   -0.1468 N.4       1 <0>        -0.4992
     12 C10        -2.2149   -7.0819   -0.2567 C.3       1 <0>        -0.0204
     13 C11        -1.9871   -8.5948   -0.2672 C.3       1 <0>         0.0996
     14 N2         -3.2763   -9.2820   -0.3768 N.pl3     1 <0>        -0.7457
     15 C12        -3.3235  -10.6783   -0.4058 C.ar      1 <0>         0.1884
     16 C13        -2.1493  -11.4162   -0.3251 C.ar      1 <0>        -0.1262
     17 C14        -2.1989  -12.7958   -0.3535 C.ar      1 <0>        -0.0776
     18 C15        -3.4171  -13.4437   -0.4624 C.ar      1 <0>         0.0027
     19 C16        -4.5882  -12.7113   -0.5430 C.ar      1 <0>        -0.6208
     20 C17        -4.5449  -11.3311   -0.5097 C.ar      1 <0>        -0.0691
     21 S1         -6.1369  -13.5402   -0.6815 S.o2      1 <0>         2.6971
     22 O2         -6.1542  -14.5398    0.3283 O.2       1 <0>        -0.9380
     23 O3         -7.1319  -12.5297   -0.7703 O.2       1 <0>        -0.9585
     24 N3         -6.1386  -14.3351   -2.1343 N.pl3     1 <0>        -1.2440
     25 Cl1        -3.4758  -15.1783   -0.4984 Cl        1 <0>        -0.0277
     26 O4          0.8530   -4.6152    1.1895 O.3       1 <0>        -0.5412
     27 S2          3.9527   -0.8033   -0.0554 S.3       1 <0>        -0.0540
     28 C18         5.0213    0.3684   -0.9455 C.3       1 <0>        -0.1356
     29 C19         4.7611    1.7544   -0.4216 C.2       1 <0>         0.5228
     30 O5          5.6914    2.5308   -0.3677 O.2       1 <0>        -0.5001
     31 N4          3.5665    2.1752   -0.0147 N.am      1 <0>        -0.6565
     32 H1         -0.9614    1.9017    0.0260 H         1 <0>         0.1410
     33 H2          1.1363    3.1751    0.0090 H         1 <0>         0.1407
     34 H3         -0.9250   -0.5580    0.0097 H         1 <0>         0.1347
     35 H4         -0.5746   -2.4316    0.8858 H         1 <0>         0.0805
     36 H5         -0.5945   -2.4222   -0.8940 H         1 <0>         0.0856
     37 H6          0.8330   -4.4896   -0.8726 H         1 <0>         0.1386
     38 H7         -1.7685   -4.6732    0.7135 H         1 <0>         0.1424
     39 H8         -1.6349   -4.6408   -1.0611 H         1 <0>         0.1497
     40 H9         -0.3413   -6.6401   -0.9339 H         1 <0>         0.4343
     41 H10        -2.8425   -6.8148    0.5936 H         1 <0>         0.1416
     42 H11        -2.7089   -6.7824   -1.1811 H         1 <0>         0.1422
     43 H12        -1.3596   -8.8619   -1.1175 H         1 <0>         0.0850
     44 H13        -1.4932   -8.8943    0.6572 H         1 <0>         0.0850
     45 H14        -4.0971   -8.7678   -0.4292 H         1 <0>         0.4118
     46 H15        -1.1984  -10.9112   -0.2405 H         1 <0>         0.1372
     47 H16        -1.2863  -13.3699   -0.2911 H         1 <0>         0.1498
     48 H17        -5.4597  -10.7600   -0.5682 H         1 <0>         0.1561
     49 H18        -5.3665  -14.2790   -2.7187 H         1 <0>         0.4165
     50 H19        -6.9118  -14.8568   -2.4008 H         1 <0>         0.4266
     51 H20         0.3502   -4.4078    1.9891 H         1 <0>         0.3907
     52 H21         6.0666    0.1062   -0.7822 H         1 <0>         0.1544
     53 H22         4.7953    0.3321   -2.0112 H         1 <0>         0.1282
     54 H23         3.5112    3.0866    0.3129 H         1 <0>         0.4197
     55 H24        -0.4650   -6.6700    0.7089 H         1 <0>         0.4368
@<TRIPOS>BOND
     1    1    6 ar
     2    1    2 ar
     3    1   32 1
     4    2    3 ar
     5    2   33 1
     6    3   31 1
     7    3    4 ar
     8    4    5 ar
     9    4   27 1
    10    5    6 ar
    11    5    7 1
    12    6   34 1
    13    7    8 1
    14    8    9 1
    15    8   35 1
    16    8   36 1
    17    9   10 1
    18    9   26 1
    19    9   37 1
    20   10   11 1
    21   10   38 1
    22   10   39 1
    23   11   12 1
    24   11   40 1
    25   11   55 1
    26   12   13 1
    27   12   41 1
    28   12   42 1
    29   13   14 1
    30   13   43 1
    31   13   44 1
    32   14   15 1
    33   14   45 1
    34   15   20 ar
    35   15   16 ar
    36   16   17 ar
    37   16   46 1
    38   17   18 ar
    39   17   47 1
    40   18   19 ar
    41   18   25 1
    42   19   20 ar
    43   19   21 1
    44   20   48 1
    45   21   22 2
    46   21   23 2
    47   21   24 1
    48   24   49 1
    49   24   50 1
    50   26   51 1
    51   27   28 1
    52   28   29 1
    53   28   52 1
    54   28   53 1
    55   29   30 2
    56   29   31 am
    57   31   54 1
@<TRIPOS>MOLECULE
CHEMBL43968__1
   55    57     0     0     0
SMALL
USER_CHARGES

@<TRIPOS>ATOM
      1 C1         -0.0167    1.3786    0.0096 C.ar      1 <0>        -0.0393
      2 C2          1.1635    2.0954    0.0022 C.ar      1 <0>        -0.1676
      3 C3          2.3878    1.4339   -0.0136 C.ar      1 <0>         0.2043
      4 C4          2.4026    0.0400   -0.0245 C.ar      1 <0>        -0.1686
      5 C5          1.2143   -0.6781   -0.0150 C.ar      1 <0>         0.1795
      6 C6          0.0021   -0.0041    0.0020 C.ar      1 <0>        -0.2186
      7 O1          1.2389   -2.0380   -0.0224 O.3       1 <0>        -0.2872
      8 C7         -0.0224   -2.7096   -0.0118 C.3       1 <0>         0.0278
      9 C8          0.2054   -4.2226   -0.0223 C.3       1 <0>         0.0858
     10 C9         -1.1381   -4.9416    0.1147 C.3       1 <0>        -0.0407
     11 N1         -0.9101   -6.3886    0.2249 N.4       1 <0>        -0.4997
     12 C10        -2.2001   -7.0789    0.3564 C.3       1 <0>        -0.0205
     13 C11        -1.9627   -8.5860    0.4713 C.3       1 <0>         0.0995
     14 N2         -3.2492   -9.2745    0.6025 N.pl3     1 <0>        -0.7457
     15 C12        -3.2878  -10.6661    0.7231 C.ar      1 <0>         0.1884
     16 C13        -2.1068  -11.3975    0.7245 C.ar      1 <0>        -0.1262
     17 C14        -2.1478  -12.7726    0.8443 C.ar      1 <0>        -0.0775
     18 C15        -3.3642  -13.4221    0.9629 C.ar      1 <0>         0.0027
     19 C16        -4.5421  -12.6962    0.9617 C.ar      1 <0>        -0.6208
     20 C17        -4.5066  -11.3201    0.8475 C.ar      1 <0>        -0.0691
     21 S1         -6.0884  -13.5273    1.1129 S.o2      1 <0>         2.6971
     22 O2         -5.9650  -14.4178    2.2133 O.2       1 <0>        -0.9380
     23 O3         -7.0951  -12.5263    1.0521 O.2       1 <0>        -0.9585
     24 N3         -6.2732  -14.4671   -0.2380 N.pl3     1 <0>        -1.2440
     25 Cl1        -3.4122  -15.1510    1.1128 Cl        1 <0>        -0.0278
     26 O4          0.8257   -4.6024   -1.2524 O.3       1 <0>        -0.5400
     27 S2          3.9527   -0.8033   -0.0554 S.3       1 <0>        -0.0553
     28 C18         5.0213    0.3684   -0.9455 C.3       1 <0>        -0.1347
     29 C19         4.7611    1.7544   -0.4216 C.2       1 <0>         0.5228
     30 O5          5.6914    2.5308   -0.3677 O.2       1 <0>        -0.5001
     31 N4          3.5665    2.1752   -0.0147 N.am      1 <0>        -0.6565
     32 H1         -0.9614    1.9017    0.0260 H         1 <0>         0.1410
     33 H2          1.1363    3.1751    0.0090 H         1 <0>         0.1407
     34 H3         -0.9250   -0.5580    0.0097 H         1 <0>         0.1347
     35 H4         -0.5746   -2.4316    0.8858 H         1 <0>         0.0851
     36 H5         -0.5945   -2.4222   -0.8940 H         1 <0>         0.0809
     37 H6          0.8518   -4.4984    0.8109 H         1 <0>         0.1371
     38 H7         -1.6514   -4.5855    1.0079 H         1 <0>         0.1492
     39 H8         -1.7512   -4.7362   -0.7629 H         1 <0>         0.1430
     40 H9         -0.4350   -6.7182   -0.6019 H         1 <0>         0.4371
     41 H10        -2.7134   -6.7228    1.2497 H         1 <0>         0.1423
     42 H11        -2.8133   -6.8735   -0.5211 H         1 <0>         0.1417
     43 H12        -1.4494   -8.9421   -0.4219 H         1 <0>         0.0851
     44 H13        -1.3496   -8.7914    1.3488 H         1 <0>         0.0849
     45 H14        -4.0742   -8.7643    0.6056 H         1 <0>         0.4118
     46 H15        -1.1573  -10.8912    0.6317 H         1 <0>         0.1372
     47 H16        -1.2300  -13.3417    0.8452 H         1 <0>         0.1498
     48 H17        -5.4261  -10.7535    0.8511 H         1 <0>         0.1561
     49 H18        -5.5847  -14.4751   -0.9212 H         1 <0>         0.4165
     50 H19        -7.0700  -15.0096   -0.3461 H         1 <0>         0.4265
     51 H20         0.3053   -4.3867   -2.0383 H         1 <0>         0.3909
     52 H21         6.0666    0.1062   -0.7822 H         1 <0>         0.1544
     53 H22         4.7953    0.3321   -2.0112 H         1 <0>         0.1285
     54 H23         3.5112    3.0866    0.3129 H         1 <0>         0.4197
     55 H24        -0.3426   -6.5787    1.0372 H         1 <0>         0.4342
@<TRIPOS>BOND
     1    1    6 ar
     2    1    2 ar
     3    1   32 1
     4    2    3 ar
     5    2   33 1
     6    3   31 1
     7    3    4 ar
     8    4    5 ar
     9    4   27 1
    10    5    6 ar
    11    5    7 1
    12    6   34 1
    13    7    8 1
    14    8    9 1
    15    8   35 1
    16    8   36 1
    17    9   10 1
    18    9   26 1
    19    9   37 1
    20   10   11 1
    21   10   38 1
    22   10   39 1
    23   11   12 1
    24   11   40 1
    25   11   55 1
    26   12   13 1
    27   12   41 1
    28   12   42 1
    29   13   14 1
    30   13   43 1
    31   13   44 1
    32   14   15 1
    33   14   45 1
    34   15   20 ar
    35   15   16 ar
    36   16   17 ar
    37   16   46 1
    38   17   18 ar
    39   17   47 1
    40   18   19 ar
    41   18   25 1
    42   19   20 ar
    43   19   21 1
    44   20   48 1
    45   21   22 2
    46   21   23 2
    47   21   24 1
    48   24   49 1
    49   24   50 1
    50   26   51 1
    51   27   28 1
    52   28   29 1
    53   28   52 1
    54   28   53 1
    55   29   30 2
    56   29   31 am
    57   31   54 1
@<TRIPOS>MOLECULE
CHEMBL1083668
   45    46     0     0     0
SMALL
USER_CHARGES

@<TRIPOS>ATOM
      1 C1         -0.0187    1.5258    0.0104 C.3       1 <0>        -0.1430
      2 C2          0.0021   -0.0041    0.0020 C.3       1 <0>        -0.0528
      3 C3          0.7421   -0.5109    1.2415 C.3       1 <0>        -0.1424
      4 C4         -1.4117   -0.5257    0.0127 C.ar      1 <0>        -0.1037
      5 C5         -2.2592   -0.2048    1.0557 C.ar      1 <0>        -0.0785
      6 C6         -3.5561   -0.6834    1.0663 C.ar      1 <0>        -0.1545
      7 C7         -4.0087   -1.4838    0.0335 C.ar      1 <0>        -0.0854
      8 C8         -3.1656   -1.8071   -1.0117 C.ar      1 <0>        -0.2085
      9 C9         -1.8651   -1.3237   -1.0273 C.ar      1 <0>         0.1284
     10 O1         -1.0353   -1.6358   -2.0574 O.3       1 <0>        -0.2996
     11 C10        -1.5698   -2.4619   -3.0937 C.3       1 <0>         0.0277
     12 C11        -0.4971   -2.7036   -4.1575 C.3       1 <0>         0.1162
     13 C12        -1.1042   -3.4825   -5.3261 C.3       1 <0>         0.0252
     14 N1         -0.0743   -3.7146   -6.3476 N.3       1 <0>        -0.5245
     15 C13         0.3519   -2.4493   -6.9631 C.3       1 <0>         0.0136
     16 C14         1.4649   -2.7302   -7.9760 C.3       1 <0>         0.0636
     17 O2          0.9950   -3.6720   -8.9442 O.3       1 <0>        -0.3853
     18 C15         0.5724   -4.9160   -8.3794 C.3       1 <0>         0.0634
     19 C16        -0.5498   -4.6573   -7.3705 C.3       1 <0>         0.0171
     20 O3          0.5761   -3.4568   -3.5893 O.3       1 <0>        -0.5353
     21 H1          1.0039    1.9031    0.0027 H         1 <0>         0.0585
     22 H2         -0.5459    1.8868   -0.8726 H         1 <0>         0.0538
     23 H3         -0.5289    1.8773    0.9072 H         1 <0>         0.0550
     24 H4          0.5123   -0.3556   -0.8948 H         1 <0>         0.0863
     25 H5          0.2319   -0.1594    2.1383 H         1 <0>         0.0546
     26 H6          0.7568   -1.6008    1.2356 H         1 <0>         0.0547
     27 H7          1.7647   -0.1336    1.2338 H         1 <0>         0.0584
     28 H8         -1.9081    0.4202    1.8635 H         1 <0>         0.1283
     29 H9         -4.2168   -0.4320    1.8828 H         1 <0>         0.1237
     30 H10        -5.0222   -1.8568    0.0443 H         1 <0>         0.1236
     31 H11        -3.5195   -2.4323   -1.8181 H         1 <0>         0.1245
     32 H12        -1.8844   -3.4163   -2.6715 H         1 <0>         0.0664
     33 H13        -2.4271   -1.9654   -3.5483 H         1 <0>         0.0693
     34 H14        -0.1190   -1.7463   -4.5163 H         1 <0>         0.1081
     35 H15        -1.4822   -4.4398   -4.9673 H         1 <0>         0.0839
     36 H16        -1.9228   -2.9080   -5.7595 H         1 <0>         0.0483
     37 H17        -0.4951   -1.9884   -7.4714 H         1 <0>         0.0433
     38 H18         0.7239   -1.7760   -6.1908 H         1 <0>         0.0900
     39 H19         1.7445   -1.8029   -8.4761 H         1 <0>         0.0996
     40 H20         2.3320   -3.1415   -7.4592 H         1 <0>         0.0629
     41 H21         0.2064   -5.5696   -9.1712 H         1 <0>         0.0995
     42 H22         1.4135   -5.3909   -7.8743 H         1 <0>         0.0619
     43 H23        -0.8359   -5.5958   -6.8957 H         1 <0>         0.0871
     44 H24        -1.4111   -4.2317   -7.8854 H         1 <0>         0.0435
     45 H25         0.3120   -4.3224   -3.2487 H         1 <0>         0.3731
@<TRIPOS>BOND
     1    1    2 1
     2    1   21 1
     3    1   22 1
     4    1   23 1
     5    2    3 1
     6    2    4 1
     7    2   24 1
     8    3   25 1
     9    3   26 1
    10    3   27 1
    11    4    9 ar
    12    4    5 ar
    13    5    6 ar
    14    5   28 1
    15    6    7 ar
    16    6   29 1
    17    7    8 ar
    18    7   30 1
    19    8    9 ar
    20    8   31 1
    21    9   10 1
    22   10   11 1
    23   11   12 1
    24   11   32 1
    25   11   33 1
    26   12   13 1
    27   12   20 1
    28   12   34 1
    29   13   14 1
    30   13   35 1
    31   13   36 1
    32   14   19 1
    33   14   15 1
    34   15   16 1
    35   15   37 1
    36   15   38 1
    37   16   17 1
    38   16   39 1
    39   16   40 1
    40   17   18 1
    41   18   19 1
    42   18   41 1
    43   18   42 1
    44   19   43 1
    45   19   44 1
    46   20   45 1
@<TRIPOS>MOLECULE
CHEMBL1083668__1
   46    47     0     0     0
SMALL
USER_CHARGES

@<TRIPOS>ATOM
      1 C1         -0.0187    1.5258    0.0104 C.3       1 <0>        -0.1458
      2 C2          0.0021   -0.0041    0.0020 C.3       1 <0>        -0.0505
      3 C3          0.7421   -0.5109    1.2415 C.3       1 <0>        -0.1454
      4 C4         -1.4117   -0.5257    0.0127 C.ar      1 <0>        -0.0965
      5 C5         -2.2592   -0.2048    1.0557 C.ar      1 <0>        -0.0765
      6 C6         -3.5561   -0.6834    1.0663 C.ar      1 <0>        -0.1428
      7 C7         -4.0087   -1.4838    0.0335 C.ar      1 <0>        -0.0850
      8 C8         -3.1656   -1.8071   -1.0117 C.ar      1 <0>        -0.2059
      9 C9         -1.8651   -1.3237   -1.0273 C.ar      1 <0>         0.1168
     10 O1         -1.0353   -1.6358   -2.0574 O.3       1 <0>        -0.2993
     11 C10        -1.5698   -2.4619   -3.0937 C.3       1 <0>         0.0303
     12 C11        -0.4971   -2.7036   -4.1575 C.3       1 <0>         0.0861
     13 C12        -1.1042   -3.4825   -5.3261 C.3       1 <0>        -0.0427
     14 N1         -0.0743   -3.7146   -6.3476 N.4       1 <0>        -0.3799
     15 C13         0.3492   -2.4281   -6.9175 C.3       1 <0>        -0.0502
     16 C14         1.4224   -2.6725   -7.9813 C.3       1 <0>         0.0372
     17 O2          0.8998   -3.5458   -8.9863 O.3       1 <0>        -0.3559
     18 C15         0.4513   -4.8045   -8.4761 C.3       1 <0>         0.0359
     19 C16        -0.6237   -4.5640   -7.4133 C.3       1 <0>        -0.0438
     20 O3          0.5761   -3.4568   -3.5893 O.3       1 <0>        -0.5427
     21 H1          1.0039    1.9031    0.0027 H         1 <0>         0.0608
     22 H2         -0.5459    1.8868   -0.8726 H         1 <0>         0.0536
     23 H3         -0.5289    1.8773    0.9072 H         1 <0>         0.0584
     24 H4          0.5123   -0.3556   -0.8948 H         1 <0>         0.0820
     25 H5          0.2319   -0.1594    2.1383 H         1 <0>         0.0580
     26 H6          0.7568   -1.6008    1.2356 H         1 <0>         0.0542
     27 H7          1.7647   -0.1336    1.2338 H         1 <0>         0.0608
     28 H8         -1.9081    0.4202    1.8635 H         1 <0>         0.1330
     29 H9         -4.2168   -0.4320    1.8828 H         1 <0>         0.1290
     30 H10        -5.0222   -1.8568    0.0443 H         1 <0>         0.1276
     31 H11        -3.5195   -2.4323   -1.8181 H         1 <0>         0.1226
     32 H12        -1.8844   -3.4163   -2.6715 H         1 <0>         0.0760
     33 H13        -2.4271   -1.9654   -3.5483 H         1 <0>         0.0805
     34 H14        -0.1190   -1.7463   -4.5163 H         1 <0>         0.1342
     35 H15        -1.4822   -4.4398   -4.9673 H         1 <0>         0.1406
     36 H16        -1.9228   -2.9080   -5.7595 H         1 <0>         0.1456
     37 H17        -0.5080   -1.9324   -7.3730 H         1 <0>         0.1405
     38 H18         0.7571   -1.7972   -6.1277 H         1 <0>         0.1442
     39 H19         1.7072   -1.7236   -8.4358 H         1 <0>         0.1437
     40 H20         2.2958   -3.1318   -7.5183 H         1 <0>         0.0833
     41 H21         0.0332   -5.3985   -9.2888 H         1 <0>         0.1435
     42 H22         1.2915   -5.3367   -8.0301 H         1 <0>         0.0823
     43 H23        -0.9381   -5.5187   -6.9915 H         1 <0>         0.1431
     44 H24        -1.4806   -4.0675   -7.8686 H         1 <0>         0.1401
     45 H25         0.3120   -4.3224   -3.2487 H         1 <0>         0.3904
     46 H26         0.7195   -4.1739   -5.9268 H         1 <0>         0.4285
@<TRIPOS>BOND
     1    1    2 1
     2    1   21 1
     3    1   22 1
     4    1   23 1
     5    2    3 1
     6    2    4 1
     7    2   24 1
     8    3   25 1
     9    3   26 1
    10    3   27 1
    11    4    9 ar
    12    4    5 ar
    13    5    6 ar
    14    5   28 1
    15    6    7 ar
    16    6   29 1
    17    7    8 ar
    18    7   30 1
    19    8    9 ar
    20    8   31 1
    21    9   10 1
    22   10   11 1
    23   11   12 1
    24   11   32 1
    25   11   33 1
    26   12   13 1
    27   12   20 1
    28   12   34 1
    29   13   14 1
    30   13   35 1
    31   13   36 1
    32   14   19 1
    33   14   15 1
    34   14   46 1
    35   15   16 1
    36   15   37 1
    37   15   38 1
    38   16   17 1
    39   16   39 1
    40   16   40 1
    41   17   18 1
    42   18   19 1
    43   18   41 1
    44   18   42 1
    45   19   43 1
    46   19   44 1
    47   20   45 1
@<TRIPOS>MOLECULE
CHEMBL1083668__2
   45    46     0     0     0
SMALL
USER_CHARGES

@<TRIPOS>ATOM
      1 C1         -0.0614    1.5781   -0.0342 C.3       1 <0>        -0.1425
      2 C2         -0.0156    0.0488   -0.0323 C.3       1 <0>        -0.0528
      3 C3          0.7429   -0.4372    1.2044 C.3       1 <0>        -0.1429
      4 C4         -1.4205   -0.4959   -0.0061 C.ar      1 <0>        -0.1037
      5 C5         -2.2644   -0.1817    1.0417 C.ar      1 <0>        -0.0784
      6 C6         -3.5531   -0.6814    1.0666 C.ar      1 <0>        -0.1546
      7 C7         -4.0011   -1.4964    0.0431 C.ar      1 <0>        -0.0854
      8 C8         -3.1614   -1.8131   -1.0069 C.ar      1 <0>        -0.2087
      9 C9         -1.8692   -1.3085   -1.0368 C.ar      1 <0>         0.1285
     10 O1         -1.0430   -1.6142   -2.0716 O.3       1 <0>        -0.2994
     11 C10        -1.5724   -2.4562   -3.0976 C.3       1 <0>         0.0274
     12 C11        -0.5047   -2.6877   -4.1688 C.3       1 <0>         0.1189
     13 C12        -1.0275   -3.6875   -5.2023 C.3       1 <0>         0.0249
     14 N1          0.0024   -3.9195   -6.2237 N.3       1 <0>        -0.5249
     15 C13        -0.5867   -4.4824   -7.4475 C.3       1 <0>         0.0177
     16 C14         0.5089   -4.6521   -8.5034 C.3       1 <0>         0.0632
     17 O2          1.5500   -5.4776   -7.9744 O.3       1 <0>        -0.3852
     18 C15         2.1465   -4.9590   -6.7825 C.3       1 <0>         0.0634
     19 C16         1.0675   -4.7924   -5.7092 C.3       1 <0>         0.0149
     20 O3         -0.2017   -1.4495   -4.8147 O.3       1 <0>        -0.5351
     21 H1          0.9547    1.9720   -0.0532 H         1 <0>         0.0584
     22 H2         -0.6018    1.9242   -0.9153 H         1 <0>         0.0547
     23 H3         -0.5699    1.9275    0.8644 H         1 <0>         0.0546
     24 H4          0.4929   -0.3006   -0.9309 H         1 <0>         0.0864
     25 H5          0.2345   -0.0878    2.1030 H         1 <0>         0.0550
     26 H6          0.7756   -1.5267    1.2058 H         1 <0>         0.0538
     27 H7          1.7591   -0.0432    1.1855 H         1 <0>         0.0585
     28 H8         -1.9169    0.4546    1.8422 H         1 <0>         0.1282
     29 H9         -4.2111   -0.4352    1.8869 H         1 <0>         0.1236
     30 H10        -5.0082   -1.8858    0.0650 H         1 <0>         0.1236
     31 H11        -3.5117   -2.4497   -1.8059 H         1 <0>         0.1244
     32 H12        -1.8677   -3.4126   -2.6664 H         1 <0>         0.0691
     33 H13        -2.4414   -1.9770   -3.5484 H         1 <0>         0.0659
     34 H14         0.3972   -3.0848   -3.7030 H         1 <0>         0.1073
     35 H15        -1.2677   -4.6288   -4.7080 H         1 <0>         0.0505
     36 H16        -1.9240   -3.2862   -5.6748 H         1 <0>         0.0823
     37 H17        -1.0309   -5.4525   -7.2247 H         1 <0>         0.0434
     38 H18        -1.3549   -3.8077   -7.8253 H         1 <0>         0.0871
     39 H19         0.0880   -5.1220   -9.3923 H         1 <0>         0.0994
     40 H20         0.9163   -3.6756   -8.7654 H         1 <0>         0.0621
     41 H21         2.9099   -5.6509   -6.4268 H         1 <0>         0.0997
     42 H22         2.6015   -3.9915   -6.9944 H         1 <0>         0.0629
     43 H23         1.5068   -4.3441   -4.8180 H         1 <0>         0.0880
     44 H24         0.6498   -5.7675   -5.4586 H         1 <0>         0.0439
     45 H25        -0.9598   -1.0380   -5.2518 H         1 <0>         0.3718
@<TRIPOS>BOND
     1    1    2 1
     2    1   21 1
     3    1   22 1
     4    1   23 1
     5    2    3 1
     6    2    4 1
     7    2   24 1
     8    3   25 1
     9    3   26 1
    10    3   27 1
    11    4    9 ar
    12    4    5 ar
    13    5    6 ar
    14    5   28 1
    15    6    7 ar
    16    6   29 1
    17    7    8 ar
    18    7   30 1
    19    8    9 ar
    20    8   31 1
    21    9   10 1
    22   10   11 1
    23   11   12 1
    24   11   32 1
    25   11   33 1
    26   12   13 1
    27   12   20 1
    28   12   34 1
    29   13   14 1
    30   13   35 1
    31   13   36 1
    32   14   19 1
    33   14   15 1
    34   15   16 1
    35   15   37 1
    36   15   38 1
    37   16   17 1
    38   16   39 1
    39   16   40 1
    40   17   18 1
    41   18   19 1
    42   18   41 1
    43   18   42 1
    44   19   43 1
    45   19   44 1
    46   20   45 1
@<TRIPOS>MOLECULE
CHEMBL1083668__3
   46    47     0     0     0
SMALL
USER_CHARGES

@<TRIPOS>ATOM
      1 C1          0.1639    1.1901    0.2893 C.3       1 <0>        -0.1455
      2 C2          0.1284   -0.3367    0.1966 C.3       1 <0>        -0.0505
      3 C3          0.8472   -0.9379    1.4061 C.3       1 <0>        -0.1457
      4 C4         -1.3037   -0.8057    0.1791 C.ar      1 <0>        -0.0965
      5 C5         -2.1405   -0.5117    1.2385 C.ar      1 <0>        -0.0765
      6 C6         -3.4542   -0.9421    1.2233 C.ar      1 <0>        -0.1428
      7 C7         -3.9342   -1.6672    0.1481 C.ar      1 <0>        -0.0850
      8 C8         -3.1018   -1.9633   -0.9136 C.ar      1 <0>        -0.2059
      9 C9         -1.7844   -1.5280   -0.9031 C.ar      1 <0>         0.1168
     10 O1         -0.9649   -1.8132   -1.9491 O.3       1 <0>        -0.2992
     11 C10        -1.5278   -2.5607   -3.0291 C.3       1 <0>         0.0303
     12 C11        -0.4630   -2.7828   -4.1051 C.3       1 <0>         0.0861
     13 C12        -1.0275   -3.6875   -5.2023 C.3       1 <0>        -0.0427
     14 N1          0.0024   -3.9195   -6.2237 N.4       1 <0>        -0.3800
     15 C13        -0.5802   -4.6685   -7.3456 C.3       1 <0>        -0.0438
     16 C14         0.4947   -4.9088   -8.4086 C.3       1 <0>         0.0358
     17 O2          1.5912   -5.6135   -7.8195 O.3       1 <0>        -0.3558
     18 C15         2.1778   -4.9343   -6.7058 C.3       1 <0>         0.0371
     19 C16         1.1060   -4.6940   -5.6396 C.3       1 <0>        -0.0501
     20 O3         -0.0879   -1.5253   -4.6708 O.3       1 <0>        -0.5426
     21 H1          1.1997    1.5293    0.3020 H         1 <0>         0.0608
     22 H2         -0.3482    1.6184   -0.5723 H         1 <0>         0.0542
     23 H3         -0.3345    1.5103    1.2043 H         1 <0>         0.0581
     24 H4          0.6268   -0.6568   -0.7184 H         1 <0>         0.0820
     25 H5          0.3488   -0.6178    2.3211 H         1 <0>         0.0584
     26 H6          0.8218   -2.0256    1.3400 H         1 <0>         0.0536
     27 H7          1.8830   -0.5987    1.4187 H         1 <0>         0.0608
     28 H8         -1.7679    0.0545    2.0794 H         1 <0>         0.1330
     29 H9         -4.1065   -0.7119    2.0527 H         1 <0>         0.1290
     30 H10        -4.9608   -2.0026    0.1387 H         1 <0>         0.1276
     31 H11        -3.4772   -2.5297   -1.7531 H         1 <0>         0.1226
     32 H12        -1.8780   -3.5247   -2.6601 H         1 <0>         0.0804
     33 H13        -2.3654   -2.0087   -3.4554 H         1 <0>         0.0761
     34 H14         0.4117   -3.2557   -3.6586 H         1 <0>         0.1339
     35 H15        -1.3295   -4.6404   -4.7678 H         1 <0>         0.1455
     36 H16        -1.8919   -3.2068   -5.6605 H         1 <0>         0.1407
     37 H17        -0.9572   -5.6262   -6.9867 H         1 <0>         0.1401
     38 H18        -1.3990   -4.0948   -7.7797 H         1 <0>         0.1431
     39 H19         0.0762   -5.5014   -9.2221 H         1 <0>         0.1435
     40 H20         0.8434   -3.9517   -8.7965 H         1 <0>         0.0824
     41 H21         2.9774   -5.5453   -6.2869 H         1 <0>         0.1437
     42 H22         2.5841   -3.9781   -7.0354 H         1 <0>         0.0834
     43 H23         1.5390   -4.1392   -4.8073 H         1 <0>         0.1440
     44 H24         0.7285   -5.6517   -5.2814 H         1 <0>         0.1406
     45 H25        -0.8185   -1.0475   -5.0867 H         1 <0>         0.3905
     46 H26         0.3522   -3.0334   -6.5562 H         1 <0>         0.4286
@<TRIPOS>BOND
     1    1    2 1
     2    1   21 1
     3    1   22 1
     4    1   23 1
     5    2    3 1
     6    2    4 1
     7    2   24 1
     8    3   25 1
     9    3   26 1
    10    3   27 1
    11    4    9 ar
    12    4    5 ar
    13    5    6 ar
    14    5   28 1
    15    6    7 ar
    16    6   29 1
    17    7    8 ar
    18    7   30 1
    19    8    9 ar
    20    8   31 1
    21    9   10 1
    22   10   11 1
    23   11   12 1
    24   11   32 1
    25   11   33 1
    26   12   13 1
    27   12   20 1
    28   12   34 1
    29   13   14 1
    30   13   35 1
    31   13   36 1
    32   14   19 1
    33   14   15 1
    34   14   46 1
    35   15   16 1
    36   15   37 1
    37   15   38 1
    38   16   17 1
    39   16   39 1
    40   16   40 1
    41   17   18 1
    42   18   19 1
    43   18   41 1
    44   18   42 1
    45   19   43 1
    46   19   44 1
    47   20   45 1
@<TRIPOS>MOLECULE
CHEMBL186676
   70    74     0     0     0
SMALL
USER_CHARGES

@<TRIPOS>ATOM
      1 C1         -0.0187    1.5258    0.0104 C.3       1 <0>        -0.1837
      2 C2          0.0021   -0.0041    0.0020 C.3       1 <0>         0.0276
      3 H1          0.5293   -0.3651    0.8851 H         1 <0>         0.1371
      4 C3          0.7182   -0.4975   -1.2568 C.3       1 <0>        -0.0553
      5 C4          0.8473   -1.9981   -1.2057 C.2       1 <0>        -0.2358
      6 C5          1.9041   -2.6937   -0.7564 C.2       1 <0>         0.1007
      7 N1          1.6592   -4.0349   -0.8646 N.pl3     1 <0>        -0.5747
      8 H2          2.2753   -4.7370   -0.6031 H         1 <0>         0.4266
      9 C6          0.4058   -4.2399   -1.4002 C.ar      1 <0>         0.0751
     10 C7         -0.1590   -2.9739   -1.6310 C.ar      1 <0>        -0.0796
     11 C8         -1.4436   -2.8707   -2.1710 C.ar      1 <0>        -0.1489
     12 C9         -2.1488   -4.0022   -2.4700 C.ar      1 <0>        -0.0756
     13 C10        -1.6006   -5.2565   -2.2421 C.ar      1 <0>        -0.1992
     14 C11        -0.3282   -5.3834   -1.7167 C.ar      1 <0>         0.1431
     15 O1          0.1992   -6.6167   -1.4948 O.3       1 <0>        -0.3131
     16 C12        -0.6108   -7.7410   -1.8437 C.3       1 <0>         0.1045
     17 C13         0.1334   -9.0132   -1.5294 C.ar      1 <0>        -0.1035
     18 C14         0.9492   -9.5906   -2.4844 C.ar      1 <0>        -0.0955
     19 C15         1.6318  -10.7576   -2.1961 C.ar      1 <0>        -0.1229
     20 C16         1.4991  -11.3468   -0.9527 C.ar      1 <0>        -0.1057
     21 C17         0.6840  -10.7689    0.0026 C.ar      1 <0>        -0.1217
     22 C18         0.0047   -9.5996   -0.2842 C.ar      1 <0>        -0.0942
     23 N2         -1.3761   -0.5125    0.0124 N.4       1 <0>        -0.5044
     24 C19        -2.0260   -0.1396    1.2760 C.3       1 <0>        -0.0460
     25 C20        -3.4614   -0.6692    1.2868 C.3       1 <0>         0.1422
     26 H3         -3.4489   -1.7549    1.1913 H         1 <0>         0.1236
     27 C21        -4.1282   -0.2867    2.5830 C.ar      1 <0>        -0.1009
     28 C22        -4.7304    0.9519    2.7108 C.ar      1 <0>        -0.2175
     29 C23        -5.3429    1.3070    3.8984 C.ar      1 <0>        -0.0568
     30 C24        -5.3556    0.4252    4.9614 C.ar      1 <0>        -0.2496
     31 C25        -4.7522   -0.8195    4.8364 C.ar      1 <0>         0.2864
     32 C26        -4.1422   -1.1752    3.6398 C.ar      1 <0>        -0.1665
     33 N3         -4.7632   -1.7137    5.9093 N.2       1 <0>        -1.0869
     34 S1         -5.4963   -1.2903    7.3326 S.o2      1 <0>         2.6401
     35 O2         -4.7381   -0.2187    7.8767 O.2       1 <0>        -1.0184
     36 O3         -6.8855   -1.1771    7.0559 O.2       1 <0>        -1.0164
     37 C27        -5.3120   -2.6498    8.4381 C.2       1 <0>        -0.6793
     38 C28        -4.3177   -2.9005    9.3246 C.2       1 <0>        -0.0395
     39 C29        -4.3826   -4.0436   10.0991 C.2       1 <0>        -0.1836
     40 C30        -5.4385   -4.8801    9.9491 C.2       1 <0>        -0.1614
     41 S2         -6.3904   -4.0507    8.6870 S.3       1 <0>         0.1445
     42 O4         -4.1863   -0.1032    0.1931 O.3       1 <0>        -0.5530
     43 H4          1.0039    1.9031    0.0027 H         1 <0>         0.1035
     44 H5         -0.5459    1.8868   -0.8726 H         1 <0>         0.0811
     45 H6         -0.5289    1.8773    0.9072 H         1 <0>         0.0842
     46 H7          0.1430   -0.2121   -2.1375 H         1 <0>         0.0930
     47 H8          1.7103   -0.0491   -1.3098 H         1 <0>         0.1148
     48 H9          2.8129   -2.2587   -0.3676 H         1 <0>         0.1782
     49 H10        -1.8783   -1.8987   -2.3513 H         1 <0>         0.1187
     50 H11        -3.1416   -3.9196   -2.8869 H         1 <0>         0.1332
     51 H12        -2.1705   -6.1415   -2.4837 H         1 <0>         0.1368
     52 H13        -1.5384   -7.7120   -1.2719 H         1 <0>         0.0768
     53 H14        -0.8395   -7.7076   -2.9089 H         1 <0>         0.0753
     54 H15         1.0529   -9.1303   -3.4558 H         1 <0>         0.1235
     55 H16         2.2686  -11.2091   -2.9424 H         1 <0>         0.1267
     56 H17         2.0319  -12.2589   -0.7277 H         1 <0>         0.1264
     57 H18         0.5800  -11.2294    0.9739 H         1 <0>         0.1277
     58 H19        -0.6292   -9.1461    0.4634 H         1 <0>         0.1252
     59 H20        -1.8879   -0.1129   -0.7598 H         1 <0>         0.4229
     60 H21        -1.4732   -0.5714    2.1102 H         1 <0>         0.1428
     61 H22        -2.0386    0.9461    1.3715 H         1 <0>         0.1379
     62 H23        -4.7219    1.6433    1.8812 H         1 <0>         0.1011
     63 H24        -5.8115    2.2752    3.9951 H         1 <0>         0.1095
     64 H25        -5.8339    0.7034    5.8889 H         1 <0>         0.1022
     65 H26        -3.6756   -2.1439    3.5379 H         1 <0>         0.1147
     66 H27        -3.4871   -2.2174    9.4241 H         1 <0>         0.1425
     67 H28        -3.6033   -4.2670   10.8127 H         1 <0>         0.1384
     68 H29        -5.6509   -5.8061   10.4628 H         1 <0>         0.1906
     69 H30        -4.2382    0.8622    0.2132 H         1 <0>         0.3837
     70 H31        -1.3644   -1.5176   -0.0760 H         1 <0>         0.4272
@<TRIPOS>BOND
     1    1    2 1
     2    1   43 1
     3    1   44 1
     4    1   45 1
     5    2    3 1
     6    2    4 1
     7    2   23 1
     8    4    5 1
     9    4   46 1
    10    4   47 1
    11    5   10 1
    12    5    6 2
    13    6    7 1
    14    6   48 1
    15    7    8 1
    16    7    9 1
    17    9   14 ar
    18    9   10 ar
    19   10   11 ar
    20   11   12 ar
    21   11   49 1
    22   12   13 ar
    23   12   50 1
    24   13   14 ar
    25   13   51 1
    26   14   15 1
    27   15   16 1
    28   16   17 1
    29   16   52 1
    30   16   53 1
    31   17   22 ar
    32   17   18 ar
    33   18   19 ar
    34   18   54 1
    35   19   20 ar
    36   19   55 1
    37   20   21 ar
    38   20   56 1
    39   21   22 ar
    40   21   57 1
    41   22   58 1
    42   23   24 1
    43   23   59 1
    44   23   70 1
    45   24   25 1
    46   24   60 1
    47   24   61 1
    48   25   26 1
    49   25   27 1
    50   25   42 1
    51   27   32 ar
    52   27   28 ar
    53   28   29 ar
    54   28   62 1
    55   29   30 ar
    56   29   63 1
    57   30   31 ar
    58   30   64 1
    59   31   32 ar
    60   31   33 1
    61   32   65 1
    62   33   34 1
    63   34   35 2
    64   34   36 2
    65   34   37 1
    66   37   41 1
    67   37   38 2
    68   38   39 1
    69   38   66 1
    70   39   40 2
    71   39   67 1
    72   40   41 1
    73   40   68 1
    74   42   69 1
@<TRIPOS>MOLECULE
CHEMBL1083672
   70    74     0     0     0
SMALL
USER_CHARGES

@<TRIPOS>ATOM
      1 C1         -0.0157    1.3058    0.0092 C.2       1 <0>        -0.1977
      2 C2          0.0021   -0.0041    0.0020 C.2       1 <0>        -0.1395
      3 C3          1.3172   -0.7397   -0.0145 C.3       1 <0>        -0.0476
      4 C4          1.3689   -1.7024    1.1438 C.ar      1 <0>        -0.1076
      5 C5          1.9659   -1.3243    2.3310 C.ar      1 <0>        -0.0778
      6 C6          2.0140   -2.2071    3.3938 C.ar      1 <0>        -0.1548
      7 C7          1.4647   -3.4703    3.2718 C.ar      1 <0>        -0.0839
      8 C8          0.8663   -3.8530    2.0871 C.ar      1 <0>        -0.2089
      9 C9          0.8121   -2.9669    1.0208 C.ar      1 <0>         0.1311
     10 O1          0.2189   -3.3391   -0.1440 O.3       1 <0>        -0.2980
     11 C10        -0.3332   -4.6560   -0.1990 C.3       1 <0>         0.0271
     12 C11        -0.9528   -4.8920   -1.5778 C.3       1 <0>         0.1164
     13 C12        -1.6524   -6.2525   -1.5965 C.3       1 <0>         0.0265
     14 N1         -2.2474   -6.4791   -2.9204 N.3       1 <0>        -0.5273
     15 C13        -3.3359   -5.5263   -3.1786 C.3       1 <0>         0.0556
     16 C14        -3.8748   -5.7430   -4.5947 C.3       1 <0>         0.0600
     17 N2         -4.3478   -7.1278   -4.7294 N.3       1 <0>        -0.5345
     18 C15        -3.2593   -8.0806   -4.4711 C.3       1 <0>         0.0533
     19 C16        -2.7204   -7.8639   -3.0551 C.3       1 <0>         0.0585
     20 C17        -4.9428   -7.3544   -6.0533 C.3       1 <0>         0.0473
     21 C18        -5.6424   -8.7149   -6.0719 C.3       1 <0>         0.0995
     22 N3         -6.2357   -8.9409   -7.3922 N.am      1 <0>        -0.5592
     23 C19        -7.4972   -8.5263   -7.6156 C.2       1 <0>         0.5700
     24 O2         -8.1194   -7.9763   -6.7271 O.2       1 <0>        -0.4860
     25 C20        -8.1265   -8.7345   -8.9281 C.ar      1 <0>        -0.1617
     26 C21        -9.4228   -8.3236   -9.2015 C.ar      1 <0>        -0.0047
     27 C22        -9.9744   -8.5434  -10.4583 C.ar      1 <0>        -0.1386
     28 C23        -9.2695   -9.1616  -11.4509 C.ar      1 <0>        -0.0482
     29 C24        -7.9527   -9.5934  -11.2147 C.ar      1 <0>        -0.0764
     30 C25        -7.3816   -9.3762   -9.9434 C.ar      1 <0>         0.0079
     31 C26        -6.0600   -9.7991   -9.6746 C.ar      1 <0>        -0.1619
     32 C27        -5.3371  -10.4280  -10.6775 C.ar      1 <0>        -0.0047
     33 C28        -5.9109  -10.6358  -11.9263 C.ar      1 <0>        -0.1389
     34 C29        -7.1860  -10.2340  -12.2037 C.ar      1 <0>        -0.0479
     35 C30        -5.4975   -9.5506   -8.3390 C.2       1 <0>         0.5707
     36 O3         -4.3607   -9.9015   -8.0868 O.2       1 <0>        -0.4902
     37 O4          0.0740   -4.8707   -2.5715 O.3       1 <0>        -0.5356
     38 H1          0.9122    1.8585    0.0033 H         1 <0>         0.0960
     39 H2         -0.9582    1.8330    0.0166 H         1 <0>         0.0970
     40 H3         -0.9258   -0.5567    0.0079 H         1 <0>         0.1068
     41 H4          1.4134   -1.2911   -0.9498 H         1 <0>         0.0877
     42 H5          2.1349   -0.0241    0.0711 H         1 <0>         0.0749
     43 H6          2.3956   -0.3383    2.4288 H         1 <0>         0.1285
     44 H7          2.4817   -1.9099    4.3207 H         1 <0>         0.1243
     45 H8          1.5039   -4.1584    4.1033 H         1 <0>         0.1241
     46 H9          0.4375   -4.8397    1.9923 H         1 <0>         0.1255
     47 H10         0.4554   -5.3881   -0.0249 H         1 <0>         0.0662
     48 H11        -1.1014   -4.7602    0.5672 H         1 <0>         0.0696
     49 H12        -1.6791   -4.1071   -1.7890 H         1 <0>         0.1078
     50 H13        -0.9262   -7.0374   -1.3853 H         1 <0>         0.0823
     51 H14        -2.4356   -6.2688   -0.8386 H         1 <0>         0.0478
     52 H15        -4.1369   -5.6848   -2.4565 H         1 <0>         0.0441
     53 H16        -2.9579   -4.5082   -3.0852 H         1 <0>         0.0837
     54 H17        -4.7015   -5.0568   -4.7781 H         1 <0>         0.0813
     55 H18        -3.0808   -5.5579   -5.3181 H         1 <0>         0.0467
     56 H19        -3.6373   -9.0987   -4.5646 H         1 <0>         0.0824
     57 H20        -2.4583   -7.9221   -5.1932 H         1 <0>         0.0478
     58 H21        -1.8937   -8.5501   -2.8716 H         1 <0>         0.0809
     59 H22        -3.5144   -8.0490   -2.3316 H         1 <0>         0.0441
     60 H23        -5.6690   -6.5694   -6.2644 H         1 <0>         0.0804
     61 H24        -4.1596   -7.3381   -6.8112 H         1 <0>         0.0419
     62 H25        -4.9161   -9.4998   -5.8608 H         1 <0>         0.0984
     63 H26        -6.4256   -8.7311   -5.3140 H         1 <0>         0.1072
     64 H27       -10.0050   -7.8322   -8.4361 H         1 <0>         0.1467
     65 H28       -10.9852   -8.2175  -10.6543 H         1 <0>         0.1406
     66 H29        -9.7240   -9.3194  -12.4178 H         1 <0>         0.1419
     67 H30        -4.3259  -10.7566  -10.4878 H         1 <0>         0.1463
     68 H31        -5.3340  -11.1270  -12.6960 H         1 <0>         0.1405
     69 H32        -7.6060  -10.4091  -13.1831 H         1 <0>         0.1419
     70 H33         0.7565   -5.5442   -2.4463 H         1 <0>         0.3725
@<TRIPOS>BOND
     1    1    2 2
     2    1   38 1
     3    1   39 1
     4    2    3 1
     5    2   40 1
     6    3    4 1
     7    3   41 1
     8    3   42 1
     9    4    9 ar
    10    4    5 ar
    11    5    6 ar
    12    5   43 1
    13    6    7 ar
    14    6   44 1
    15    7    8 ar
    16    7   45 1
    17    8    9 ar
    18    8   46 1
    19    9   10 1
    20   10   11 1
    21   11   12 1
    22   11   47 1
    23   11   48 1
    24   12   13 1
    25   12   37 1
    26   12   49 1
    27   13   14 1
    28   13   50 1
    29   13   51 1
    30   14   19 1
    31   14   15 1
    32   15   16 1
    33   15   52 1
    34   15   53 1
    35   16   17 1
    36   16   54 1
    37   16   55 1
    38   17   18 1
    39   17   20 1
    40   18   19 1
    41   18   56 1
    42   18   57 1
    43   19   58 1
    44   19   59 1
    45   20   21 1
    46   20   60 1
    47   20   61 1
    48   21   22 1
    49   21   62 1
    50   21   63 1
    51   22   35 am
    52   22   23 am
    53   23   24 2
    54   23   25 1
    55   25   30 ar
    56   25   26 ar
    57   26   27 ar
    58   26   64 1
    59   27   28 ar
    60   27   65 1
    61   28   29 ar
    62   28   66 1
    63   29   34 ar
    64   29   30 ar
    65   30   31 ar
    66   31   32 ar
    67   31   35 1
    68   32   33 ar
    69   32   67 1
    70   33   34 ar
    71   33   68 1
    72   34   69 1
    73   35   36 2
    74   37   70 1
@<TRIPOS>MOLECULE
CHEMBL1083672__1
   71    75     0     0     0
SMALL
USER_CHARGES

@<TRIPOS>ATOM
      1 C1         -0.0157    1.3058    0.0092 C.2       1 <0>        -0.1872
      2 C2          0.0021   -0.0041    0.0020 C.2       1 <0>        -0.1496
      3 C3          1.3172   -0.7397   -0.0145 C.3       1 <0>        -0.0476
      4 C4          1.3689   -1.7024    1.1438 C.ar      1 <0>        -0.0999
      5 C5          1.9659   -1.3243    2.3310 C.ar      1 <0>        -0.0758
      6 C6          2.0140   -2.2071    3.3938 C.ar      1 <0>        -0.1434
      7 C7          1.4647   -3.4703    3.2718 C.ar      1 <0>        -0.0837
      8 C8          0.8663   -3.8530    2.0871 C.ar      1 <0>        -0.2064
      9 C9          0.8121   -2.9669    1.0208 C.ar      1 <0>         0.1198
     10 O1          0.2189   -3.3391   -0.1440 O.3       1 <0>        -0.2976
     11 C10        -0.3332   -4.6560   -0.1990 C.3       1 <0>         0.0299
     12 C11        -0.9528   -4.8920   -1.5778 C.3       1 <0>         0.0862
     13 C12        -1.6524   -6.2525   -1.5965 C.3       1 <0>        -0.0419
     14 N1         -2.2474   -6.4791   -2.9204 N.4       1 <0>        -0.3812
     15 C13        -3.3087   -5.4913   -3.1554 C.3       1 <0>        -0.0069
     16 C14        -3.9161   -5.7151   -4.5420 C.3       1 <0>         0.0288
     17 N2         -4.4643   -7.0766   -4.6197 N.3       1 <0>        -0.5328
     18 C15        -3.4180   -8.0760   -4.3618 C.3       1 <0>         0.0189
     19 C16        -2.8148   -7.8328   -2.9766 C.3       1 <0>        -0.0012
     20 C17        -5.1079   -7.3116   -5.9191 C.3       1 <0>         0.0441
     21 C18        -5.8776   -8.6332   -5.8754 C.3       1 <0>         0.0986
     22 N3         -6.5195   -8.8675   -7.1712 N.am      1 <0>        -0.5615
     23 C19        -7.7637   -8.3938   -7.3736 C.2       1 <0>         0.5736
     24 O2         -8.3306   -7.7849   -6.4865 O.2       1 <0>        -0.4878
     25 C20        -8.4404   -8.6083   -8.6612 C.ar      1 <0>        -0.1717
     26 C21        -9.7208   -8.1380   -8.9124 C.ar      1 <0>         0.0029
     27 C22       -10.3189   -8.3664  -10.1461 C.ar      1 <0>        -0.1407
     28 C23        -9.6760   -9.0510  -11.1372 C.ar      1 <0>        -0.0402
     29 C24        -8.3771   -9.5444  -10.9231 C.ar      1 <0>        -0.0788
     30 C25        -7.7592   -9.3191   -9.6753 C.ar      1 <0>         0.0111
     31 C26        -6.4542   -9.8029   -9.4290 C.ar      1 <0>        -0.1724
     32 C27        -5.7941  -10.4993  -10.4306 C.ar      1 <0>         0.0022
     33 C28        -6.4135  -10.7145  -11.6561 C.ar      1 <0>        -0.1420
     34 C29        -7.6735  -10.2544  -11.9115 C.ar      1 <0>        -0.0391
     35 C30        -5.8415   -9.5439   -8.1178 C.2       1 <0>         0.5764
     36 O3         -4.7177   -9.9466   -7.8853 O.2       1 <0>        -0.4982
     37 O4          0.0740   -4.8707   -2.5715 O.3       1 <0>        -0.5430
     38 H1          0.9122    1.8585    0.0033 H         1 <0>         0.0988
     39 H2         -0.9582    1.8330    0.0166 H         1 <0>         0.0993
     40 H3         -0.9258   -0.5567    0.0079 H         1 <0>         0.1044
     41 H4          1.4134   -1.2911   -0.9498 H         1 <0>         0.0844
     42 H5          2.1349   -0.0241    0.0711 H         1 <0>         0.0781
     43 H6          2.3956   -0.3383    2.4288 H         1 <0>         0.1332
     44 H7          2.4817   -1.9099    4.3207 H         1 <0>         0.1294
     45 H8          1.5039   -4.1584    4.1033 H         1 <0>         0.1279
     46 H9          0.4375   -4.8397    1.9923 H         1 <0>         0.1236
     47 H10         0.4554   -5.3881   -0.0249 H         1 <0>         0.0759
     48 H11        -1.1014   -4.7602    0.5672 H         1 <0>         0.0808
     49 H12        -1.6791   -4.1071   -1.7890 H         1 <0>         0.1341
     50 H13        -0.9262   -7.0374   -1.3853 H         1 <0>         0.1394
     51 H14        -2.4356   -6.2688   -0.8386 H         1 <0>         0.1460
     52 H15        -4.0836   -5.6032   -2.3970 H         1 <0>         0.1407
     53 H16        -2.8889   -4.4869   -3.1005 H         1 <0>         0.1380
     54 H17        -4.7138   -4.9917   -4.7108 H         1 <0>         0.1264
     55 H18        -3.1444   -5.5899   -5.3016 H         1 <0>         0.0639
     56 H19        -3.8523   -9.0751   -4.3990 H         1 <0>         0.1270
     57 H20        -2.6381   -7.9897   -5.1184 H         1 <0>         0.0657
     58 H21        -2.0287   -8.5643   -2.7891 H         1 <0>         0.1372
     59 H22        -3.5922   -7.9327   -2.2192 H         1 <0>         0.1403
     60 H23        -5.7982   -6.4961   -6.1354 H         1 <0>         0.0949
     61 H24        -4.3470   -7.3598   -6.6981 H         1 <0>         0.0542
     62 H25        -5.1874   -9.4486   -5.6590 H         1 <0>         0.0977
     63 H26        -6.6385   -8.5849   -5.0964 H         1 <0>         0.1112
     64 H27       -10.2545   -7.5934   -8.1476 H         1 <0>         0.1474
     65 H28       -11.3167   -7.9936  -10.3250 H         1 <0>         0.1434
     66 H29       -10.1656   -9.2138  -12.0860 H         1 <0>         0.1450
     67 H30        -4.7964  -10.8750  -10.2579 H         1 <0>         0.1460
     68 H31        -5.8854  -11.2587  -12.4251 H         1 <0>         0.1429
     69 H32        -8.1300  -10.4368  -12.8732 H         1 <0>         0.1450
     70 H33         0.7565   -5.5442   -2.4463 H         1 <0>         0.3897
     71 H34        -1.5360   -6.3831   -3.6295 H         1 <0>         0.4261
@<TRIPOS>BOND
     1    1    2 2
     2    1   38 1
     3    1   39 1
     4    2    3 1
     5    2   40 1
     6    3    4 1
     7    3   41 1
     8    3   42 1
     9    4    9 ar
    10    4    5 ar
    11    5    6 ar
    12    5   43 1
    13    6    7 ar
    14    6   44 1
    15    7    8 ar
    16    7   45 1
    17    8    9 ar
    18    8   46 1
    19    9   10 1
    20   10   11 1
    21   11   12 1
    22   11   47 1
    23   11   48 1
    24   12   13 1
    25   12   37 1
    26   12   49 1
    27   13   14 1
    28   13   50 1
    29   13   51 1
    30   14   19 1
    31   14   15 1
    32   14   71 1
    33   15   16 1
    34   15   52 1
    35   15   53 1
    36   16   17 1
    37   16   54 1
    38   16   55 1
    39   17   18 1
    40   17   20 1
    41   18   19 1
    42   18   56 1
    43   18   57 1
    44   19   58 1
    45   19   59 1
    46   20   21 1
    47   20   60 1
    48   20   61 1
    49   21   22 1
    50   21   62 1
    51   21   63 1
    52   22   35 am
    53   22   23 am
    54   23   24 2
    55   23   25 1
    56   25   30 ar
    57   25   26 ar
    58   26   27 ar
    59   26   64 1
    60   27   28 ar
    61   27   65 1
    62   28   29 ar
    63   28   66 1
    64   29   34 ar
    65   29   30 ar
    66   30   31 ar
    67   31   32 ar
    68   31   35 1
    69   32   33 ar
    70   32   67 1
    71   33   34 ar
    72   33   68 1
    73   34   69 1
    74   35   36 2
    75   37   70 1
@<TRIPOS>MOLECULE
CHEMBL1083672__2
   71    75     0     0     0
SMALL
USER_CHARGES

@<TRIPOS>ATOM
      1 C1         -0.0157    1.3058    0.0092 C.2       1 <0>        -0.1921
      2 C2          0.0021   -0.0041    0.0020 C.2       1 <0>        -0.1446
      3 C3         -1.2926   -0.7753    0.0102 C.3       1 <0>        -0.0474
      4 C4         -1.3183   -1.7262   -1.1586 C.ar      1 <0>        -0.1045
      5 C5         -1.9255   -1.3514   -2.3417 C.ar      1 <0>        -0.0766
      6 C6         -1.9499   -2.2234   -3.4141 C.ar      1 <0>        -0.1488
      7 C7         -1.3665   -3.4726   -3.3059 C.ar      1 <0>        -0.0838
      8 C8         -0.7578   -3.8519   -2.1254 C.ar      1 <0>        -0.2081
      9 C9         -0.7274   -2.9764   -1.0494 C.ar      1 <0>         0.1252
     10 O1         -0.1242   -3.3451    0.1113 O.3       1 <0>        -0.2986
     11 C10         0.4634   -4.6471    0.1519 C.3       1 <0>         0.0254
     12 C11         1.0894   -4.8814    1.5282 C.3       1 <0>         0.1158
     13 C12         1.8256   -6.2226    1.5319 C.3       1 <0>         0.0238
     14 N1          2.4267   -6.4475    2.8533 N.3       1 <0>        -0.5266
     15 C13         3.4908   -5.4697    3.1213 C.3       1 <0>         0.0221
     16 C14         4.0489   -5.7001    4.5274 C.3       1 <0>         0.0002
     17 N2          4.5794   -7.0663    4.6260 N.4       1 <0>        -0.3812
     18 C15         3.4999   -8.0315    4.3803 C.3       1 <0>        -0.0077
     19 C16         2.9373   -7.8205    2.9729 C.3       1 <0>         0.0279
     20 C17         5.1313   -7.2811    5.9703 C.3       1 <0>        -0.0231
     21 C18         5.7948   -8.6582    6.0352 C.3       1 <0>         0.0727
     22 N3          6.3453   -8.8724    7.3759 N.am      1 <0>        -0.5593
     23 C19         7.6104   -8.4853    7.6268 C.2       1 <0>         0.5775
     24 O2          8.2709   -7.9693    6.7457 O.2       1 <0>        -0.4914
     25 C20         8.1974   -8.6828    8.9603 C.ar      1 <0>        -0.1792
     26 C21         9.4957   -8.2994    9.2623 C.ar      1 <0>         0.0103
     27 C22        10.0064   -8.5076   10.5381 C.ar      1 <0>        -0.1432
     28 C23         9.2585   -9.0877   11.5222 C.ar      1 <0>        -0.0321
     29 C24         7.9380   -9.4908   11.2574 C.ar      1 <0>        -0.0810
     30 C25         7.4082   -9.2850    9.9664 C.ar      1 <0>         0.0148
     31 C26         6.0841   -9.6797    9.6686 C.ar      1 <0>        -0.1792
     32 C27         5.3177  -10.2698   10.6628 C.ar      1 <0>         0.0105
     33 C28         5.8510  -10.4668   11.9311 C.ar      1 <0>        -0.1431
     34 C29         7.1279  -10.0918   12.2365 C.ar      1 <0>        -0.0322
     35 C30         5.5655   -9.4441    8.3131 C.2       1 <0>         0.5778
     36 O3          4.4275   -9.7712    8.0357 O.2       1 <0>        -0.4910
     37 O4          0.0626   -4.8988    2.5218 O.3       1 <0>        -0.5358
     38 H1          0.9122    1.8585    0.0033 H         1 <0>         0.0978
     39 H2         -0.9582    1.8330    0.0166 H         1 <0>         0.0980
     40 H3          0.9446   -0.5313   -0.0098 H         1 <0>         0.1045
     41 H4         -1.3737   -1.3393    0.9394 H         1 <0>         0.0858
     42 H5         -2.1295   -0.0812   -0.0676 H         1 <0>         0.0768
     43 H6         -2.3819   -0.3764   -2.4286 H         1 <0>         0.1311
     44 H7         -2.4256   -1.9288   -4.3378 H         1 <0>         0.1272
     45 H8         -1.3871   -4.1522   -4.1449 H         1 <0>         0.1259
     46 H9         -0.3023   -4.8275   -2.0414 H         1 <0>         0.1237
     47 H10        -0.3050   -5.3984   -0.0303 H         1 <0>         0.0684
     48 H11         1.2340   -4.7220   -0.6153 H         1 <0>         0.0699
     49 H12         1.7941   -4.0794    1.7480 H         1 <0>         0.1082
     50 H13         1.1209   -7.0245    1.3121 H         1 <0>         0.0967
     51 H14         2.6089   -6.2092    0.7740 H         1 <0>         0.0604
     52 H15         4.2889   -5.5909    2.3889 H         1 <0>         0.0625
     53 H16         3.0836   -4.4610    3.0524 H         1 <0>         0.1277
     54 H17         4.8480   -4.9851    4.7228 H         1 <0>         0.1376
     55 H18         3.2536   -5.5654    5.2605 H         1 <0>         0.1412
     56 H19         3.8920   -9.0449    4.4666 H         1 <0>         0.1369
     57 H20         2.7074   -7.8849    5.1141 H         1 <0>         0.1430
     58 H21         2.1262   -8.5268    2.7958 H         1 <0>         0.1255
     59 H22         3.7262   -7.9805    2.2381 H         1 <0>         0.0619
     60 H23         5.8714   -6.5106    6.1866 H         1 <0>         0.1374
     61 H24         4.3281   -7.2298    6.7053 H         1 <0>         0.1376
     62 H25         5.0547   -9.4286    5.8189 H         1 <0>         0.1196
     63 H26         6.5981   -8.7095    5.3002 H         1 <0>         0.1194
     64 H27        10.1114   -7.8383    8.5042 H         1 <0>         0.1481
     65 H28        11.0194   -8.2034   10.7563 H         1 <0>         0.1455
     66 H29         9.6817   -9.2374   12.5045 H         1 <0>         0.1473
     67 H30         4.3041  -10.5765   10.4509 H         1 <0>         0.1483
     68 H31         5.2406  -10.9277   12.6935 H         1 <0>         0.1456
     69 H32         7.5159  -10.2576   13.2307 H         1 <0>         0.1473
     70 H33        -0.6014   -5.5892    2.3891 H         1 <0>         0.3780
     71 H34         5.3077   -7.1944    3.9395 H         1 <0>         0.4221
@<TRIPOS>BOND
     1    1    2 2
     2    1   38 1
     3    1   39 1
     4    2    3 1
     5    2   40 1
     6    3    4 1
     7    3   41 1
     8    3   42 1
     9    4    9 ar
    10    4    5 ar
    11    5    6 ar
    12    5   43 1
    13    6    7 ar
    14    6   44 1
    15    7    8 ar
    16    7   45 1
    17    8    9 ar
    18    8   46 1
    19    9   10 1
    20   10   11 1
    21   11   12 1
    22   11   47 1
    23   11   48 1
    24   12   13 1
    25   12   37 1
    26   12   49 1
    27   13   14 1
    28   13   50 1
    29   13   51 1
    30   14   19 1
    31   14   15 1
    32   15   16 1
    33   15   52 1
    34   15   53 1
    35   16   17 1
    36   16   54 1
    37   16   55 1
    38   17   18 1
    39   17   20 1
    40   17   71 1
    41   18   19 1
    42   18   56 1
    43   18   57 1
    44   19   58 1
    45   19   59 1
    46   20   21 1
    47   20   60 1
    48   20   61 1
    49   21   22 1
    50   21   62 1
    51   21   63 1
    52   22   35 am
    53   22   23 am
    54   23   24 2
    55   23   25 1
    56   25   30 ar
    57   25   26 ar
    58   26   27 ar
    59   26   64 1
    60   27   28 ar
    61   27   65 1
    62   28   29 ar
    63   28   66 1
    64   29   34 ar
    65   29   30 ar
    66   30   31 ar
    67   31   32 ar
    68   31   35 1
    69   32   33 ar
    70   32   67 1
    71   33   34 ar
    72   33   68 1
    73   34   69 1
    74   35   36 2
    75   37   70 1
@<TRIPOS>MOLECULE
CHEMBL1083672__3
   70    74     0     0     0
SMALL
USER_CHARGES

@<TRIPOS>ATOM
      1 C1          6.3398   -7.6092   -0.5306 C.2       1 <0>        -0.1989
      2 C2          5.0493   -7.4699   -0.3538 C.2       1 <0>        -0.1381
      3 C3          4.2780   -8.5097    0.4176 C.3       1 <0>        -0.0467
      4 C4          3.5330   -7.8469    1.5475 C.ar      1 <0>        -0.1078
      5 C5          4.0937   -7.7956    2.8092 C.ar      1 <0>        -0.0778
      6 C6          3.4105   -7.1881    3.8463 C.ar      1 <0>        -0.1549
      7 C7          2.1650   -6.6300    3.6238 C.ar      1 <0>        -0.0840
      8 C8          1.6003   -6.6783    2.3642 C.ar      1 <0>        -0.2090
      9 C9          2.2862   -7.2828    1.3204 C.ar      1 <0>         0.1311
     10 O1          1.7353   -7.3267    0.0789 O.3       1 <0>        -0.2977
     11 C10         0.4488   -6.7256   -0.0816 C.3       1 <0>         0.0269
     12 C11        -0.0050   -6.8725   -1.5353 C.3       1 <0>         0.1189
     13 C12        -1.4325   -6.3412   -1.6801 C.3       1 <0>         0.0264
     14 N1         -1.8728   -6.4938   -3.0733 N.3       1 <0>        -0.5277
     15 C13        -3.0066   -5.6063   -3.3674 C.3       1 <0>         0.0596
     16 C14        -3.3829   -5.7366   -4.8452 C.3       1 <0>         0.0593
     17 N2         -3.7226   -7.1357   -5.1400 N.3       1 <0>        -0.5345
     18 C15        -2.5888   -8.0231   -4.8458 C.3       1 <0>         0.0534
     19 C16        -2.2125   -7.8928   -3.3681 C.3       1 <0>         0.0566
     20 C17        -4.1629   -7.2882   -6.5332 C.3       1 <0>         0.0475
     21 C18        -4.7407   -8.6905   -6.7348 C.3       1 <0>         0.0993
     22 N3         -5.1798   -8.8426   -8.1241 N.am      1 <0>        -0.5594
     23 C19        -6.4434   -8.5058   -8.4453 C.2       1 <0>         0.5701
     24 O2         -7.1941   -8.0850   -7.5861 O.2       1 <0>        -0.4865
     25 C20        -6.9204   -8.6437   -9.8293 C.ar      1 <0>        -0.1617
     26 C21        -8.2132   -8.3088  -10.2040 C.ar      1 <0>        -0.0048
     27 C22        -8.6177   -8.4572  -11.5255 C.ar      1 <0>        -0.1387
     28 C23        -7.7689   -8.9304  -12.4847 C.ar      1 <0>        -0.0482
     29 C24        -6.4503   -9.2812  -12.1464 C.ar      1 <0>        -0.0764
     30 C25        -6.0277   -9.1352  -10.8087 C.ar      1 <0>         0.0079
     31 C26        -4.7083   -9.4796  -10.4368 C.ar      1 <0>        -0.1619
     32 C27        -3.8398   -9.9611  -11.4053 C.ar      1 <0>        -0.0047
     33 C28        -4.2680  -10.1000  -12.7202 C.ar      1 <0>        -0.1387
     34 C29        -5.5387   -9.7722  -13.0973 C.ar      1 <0>        -0.0481
     35 C30        -4.3031   -9.3088   -9.0338 C.2       1 <0>         0.5703
     36 O3         -3.1715   -9.5942   -8.6921 O.2       1 <0>        -0.4892
     37 O4          0.8692   -6.1269   -2.3849 O.3       1 <0>        -0.5348
     38 H1          6.8510   -8.4691   -0.1237 H         1 <0>         0.0953
     39 H2          6.8918   -6.8663   -1.0872 H         1 <0>         0.0970
     40 H3          4.5382   -6.6100   -0.7607 H         1 <0>         0.1089
     41 H4          3.5676   -9.0020   -0.2466 H         1 <0>         0.0857
     42 H5          4.9693   -9.2489    0.8224 H         1 <0>         0.0745
     43 H6          5.0663   -8.2307    2.9855 H         1 <0>         0.1285
     44 H7          3.8502   -7.1496    4.8320 H         1 <0>         0.1242
     45 H8          1.6332   -6.1563    4.4357 H         1 <0>         0.1240
     46 H9          0.6276   -6.2424    2.1909 H         1 <0>         0.1254
     47 H10        -0.2676   -7.2201    0.5744 H         1 <0>         0.0694
     48 H11         0.5072   -5.6680    0.1757 H         1 <0>         0.0656
     49 H12         0.0218   -7.9244   -1.8198 H         1 <0>         0.1071
     50 H13        -2.0978   -6.9038   -1.0252 H         1 <0>         0.0501
     51 H14        -1.4575   -5.2869   -1.4045 H         1 <0>         0.0806
     52 H15        -3.8588   -5.8879   -2.7489 H         1 <0>         0.0444
     53 H16        -2.7263   -4.5750   -3.1531 H         1 <0>         0.0809
     54 H17        -4.2422   -5.1009   -5.0591 H         1 <0>         0.0814
     55 H18        -2.5397   -5.4290   -5.4637 H         1 <0>         0.0459
     56 H19        -2.8691   -9.0544   -5.0602 H         1 <0>         0.0823
     57 H20        -1.7366   -7.7415   -5.4643 H         1 <0>         0.0488
     58 H21        -1.3532   -8.5285   -3.1542 H         1 <0>         0.0817
     59 H22        -3.0557   -8.2004   -2.7496 H         1 <0>         0.0444
     60 H23        -4.9280   -6.5445   -6.7559 H         1 <0>         0.0802
     61 H24        -3.3128   -7.1461   -7.2005 H         1 <0>         0.0420
     62 H25        -3.9756   -9.4342   -6.5120 H         1 <0>         0.0987
     63 H26        -5.5907   -8.8326   -6.0675 H         1 <0>         0.1072
     64 H27        -8.9072   -7.9322   -9.4672 H         1 <0>         0.1466
     65 H28        -9.6280   -8.1921  -11.8002 H         1 <0>         0.1405
     66 H29        -8.1109   -9.0356  -13.5037 H         1 <0>         0.1419
     67 H30        -2.8283  -10.2282  -11.1370 H         1 <0>         0.1464
     68 H31        -3.5789  -10.4764  -13.4618 H         1 <0>         0.1406
     69 H32        -5.8439   -9.8909  -14.1265 H         1 <0>         0.1419
     70 H33         0.8957   -5.1804   -2.1885 H         1 <0>         0.3707
@<TRIPOS>BOND
     1    1    2 2
     2    1   38 1
     3    1   39 1
     4    2    3 1
     5    2   40 1
     6    3    4 1
     7    3   41 1
     8    3   42 1
     9    4    9 ar
    10    4    5 ar
    11    5    6 ar
    12    5   43 1
    13    6    7 ar
    14    6   44 1
    15    7    8 ar
    16    7   45 1
    17    8    9 ar
    18    8   46 1
    19    9   10 1
    20   10   11 1
    21   11   12 1
    22   11   47 1
    23   11   48 1
    24   12   13 1
    25   12   37 1
    26   12   49 1
    27   13   14 1
    28   13   50 1
    29   13   51 1
    30   14   19 1
    31   14   15 1
    32   15   16 1
    33   15   52 1
    34   15   53 1
    35   16   17 1
    36   16   54 1
    37   16   55 1
    38   17   18 1
    39   17   20 1
    40   18   19 1
    41   18   56 1
    42   18   57 1
    43   19   58 1
    44   19   59 1
    45   20   21 1
    46   20   60 1
    47   20   61 1
    48   21   22 1
    49   21   62 1
    50   21   63 1
    51   22   35 am
    52   22   23 am
    53   23   24 2
    54   23   25 1
    55   25   30 ar
    56   25   26 ar
    57   26   27 ar
    58   26   64 1
    59   27   28 ar
    60   27   65 1
    61   28   29 ar
    62   28   66 1
    63   29   34 ar
    64   29   30 ar
    65   30   31 ar
    66   31   32 ar
    67   31   35 1
    68   32   33 ar
    69   32   67 1
    70   33   34 ar
    71   33   68 1
    72   34   69 1
    73   35   36 2
    74   37   70 1
@<TRIPOS>MOLECULE
CHEMBL1083672__4
   71    75     0     0     0
SMALL
USER_CHARGES

@<TRIPOS>ATOM
      1 C1         -6.1275   -7.7807    0.4498 C.2       1 <0>        -0.1930
      2 C2         -4.8412   -7.6053    0.2747 C.2       1 <0>        -0.1440
      3 C3         -4.0424   -8.6161   -0.5071 C.3       1 <0>        -0.0459
      4 C4         -3.3153   -7.9220   -1.6299 C.ar      1 <0>        -0.1047
      5 C5         -3.8772   -7.8725   -2.8912 C.ar      1 <0>        -0.0765
      6 C6         -3.2105   -7.2364   -3.9217 C.ar      1 <0>        -0.1490
      7 C7         -1.9803   -6.6477   -3.6930 C.ar      1 <0>        -0.0840
      8 C8         -1.4145   -6.6939   -2.4338 C.ar      1 <0>        -0.2083
      9 C9         -2.0841   -7.3273   -1.3966 C.ar      1 <0>         0.1253
     10 O1         -1.5322   -7.3693   -0.1554 O.3       1 <0>        -0.2983
     11 C10        -0.2621   -6.7359    0.0116 C.3       1 <0>         0.0253
     12 C11         0.1954   -6.8857    1.4639 C.3       1 <0>         0.1184
     13 C12         1.6082   -6.3181    1.6146 C.3       1 <0>         0.0238
     14 N1          2.0527   -6.4740    3.0060 N.3       1 <0>        -0.5273
     15 C13         3.1638   -5.5609    3.3094 C.3       1 <0>         0.0280
     16 C14         3.5566   -5.7117    4.7807 C.3       1 <0>        -0.0005
     17 N2          3.9567   -7.1008    5.0410 N.4       1 <0>        -0.3811
     18 C15         2.8292   -7.9983    4.7570 C.3       1 <0>        -0.0076
     19 C16         2.4303   -7.8666    3.2855 C.3       1 <0>         0.0245
     20 C17         4.3510   -7.2409    6.4491 C.3       1 <0>        -0.0228
     21 C18         4.8854   -8.6540    6.6910 C.3       1 <0>         0.0724
     22 N3          5.2786   -8.7937    8.0953 N.am      1 <0>        -0.5593
     23 C19         6.5405   -8.4842    8.4491 C.2       1 <0>         0.5776
     24 O2          7.3273   -8.0977    7.6063 O.2       1 <0>        -0.4919
     25 C20         6.9721   -8.6107    9.8490 C.ar      1 <0>        -0.1792
     26 C21         8.2615   -8.3030   10.2572 C.ar      1 <0>         0.0101
     27 C22         8.6223   -8.4393   11.5926 C.ar      1 <0>        -0.1433
     28 C23         7.7331   -8.8739   12.5332 C.ar      1 <0>        -0.0321
     29 C24         6.4164   -9.1962   12.1609 C.ar      1 <0>        -0.0810
     30 C25         6.0379   -9.0622   10.8087 C.ar      1 <0>         0.0149
     31 C26         4.7216   -9.3787   10.4027 C.ar      1 <0>        -0.1791
     32 C27         3.8121   -9.8210   11.3521 C.ar      1 <0>         0.0106
     33 C28         4.1971   -9.9485   12.6815 C.ar      1 <0>        -0.1430
     34 C29         5.4642   -9.6472   13.0916 C.ar      1 <0>        -0.0323
     35 C30         4.3632   -9.2215    8.9855 C.2       1 <0>         0.5773
     36 O3          3.2351   -9.4833    8.6143 O.2       1 <0>        -0.4901
     37 O4         -0.6984   -6.1724    2.3209 O.3       1 <0>        -0.5347
     38 H1         -6.7000   -7.0563    1.0101 H         1 <0>         0.0983
     39 H2         -6.6164   -8.6474    0.0300 H         1 <0>         0.0969
     40 H3         -4.3531   -6.7363    0.6907 H         1 <0>         0.1074
     41 H4         -3.3192   -9.0961    0.1521 H         1 <0>         0.0833
     42 H5         -4.7138   -9.3691   -0.9197 H         1 <0>         0.0761
     43 H6         -4.8379   -8.3315   -3.0723 H         1 <0>         0.1311
     44 H7         -3.6510   -7.1994   -4.9071 H         1 <0>         0.1271
     45 H8         -1.4612   -6.1516   -4.4998 H         1 <0>         0.1258
     46 H9         -0.4537   -6.2340   -2.2558 H         1 <0>         0.1235
     47 H10         0.4672   -7.2043   -0.6493 H         1 <0>         0.0697
     48 H11        -0.3487   -5.6776   -0.2347 H         1 <0>         0.0675
     49 H12         0.1966   -7.9408    1.7374 H         1 <0>         0.1084
     50 H13         2.2882   -6.8556    0.9536 H         1 <0>         0.0626
     51 H14         1.6050   -5.2606    1.3505 H         1 <0>         0.0943
     52 H15         4.0180   -5.8052    2.6780 H         1 <0>         0.0620
     53 H16         2.8526   -4.5337    3.1195 H         1 <0>         0.1253
     54 H17         4.3900   -5.0456    5.0043 H         1 <0>         0.1374
     55 H18         2.7062   -5.4542    5.4121 H         1 <0>         0.1405
     56 H19         3.1232   -9.0275    4.9629 H         1 <0>         0.1370
     57 H20         1.9825   -7.7291    5.3884 H         1 <0>         0.1439
     58 H21         1.5840   -8.5215    3.0781 H         1 <0>         0.1261
     59 H22         3.2725   -8.1489    2.6537 H         1 <0>         0.0628
     60 H23         5.1285   -6.5135    6.6828 H         1 <0>         0.1372
     61 H24         3.4854   -7.0655    7.0880 H         1 <0>         0.1376
     62 H25         4.1079   -9.3814    6.4573 H         1 <0>         0.1199
     63 H26         5.7509   -8.8294    6.0522 H         1 <0>         0.1194
     64 H27         8.9870   -7.9572    9.5357 H         1 <0>         0.1480
     65 H28         9.6306   -8.1958   11.8934 H         1 <0>         0.1454
     66 H29         8.0416   -8.9705   13.5637 H         1 <0>         0.1473
     67 H30         2.8025  -10.0664   11.0576 H         1 <0>         0.1485
     68 H31         3.4765  -10.2942   13.4079 H         1 <0>         0.1456
     69 H32         5.7352   -9.7562   14.1313 H         1 <0>         0.1473
     70 H33        -0.7501   -5.2250    2.1343 H         1 <0>         0.3757
     71 H34         4.7365   -7.3427    4.4481 H         1 <0>         0.4221
@<TRIPOS>BOND
     1    1    2 2
     2    1   38 1
     3    1   39 1
     4    2    3 1
     5    2   40 1
     6    3    4 1
     7    3   41 1
     8    3   42 1
     9    4    9 ar
    10    4    5 ar
    11    5    6 ar
    12    5   43 1
    13    6    7 ar
    14    6   44 1
    15    7    8 ar
    16    7   45 1
    17    8    9 ar
    18    8   46 1
    19    9   10 1
    20   10   11 1
    21   11   12 1
    22   11   47 1
    23   11   48 1
    24   12   13 1
    25   12   37 1
    26   12   49 1
    27   13   14 1
    28   13   50 1
    29   13   51 1
    30   14   19 1
    31   14   15 1
    32   15   16 1
    33   15   52 1
    34   15   53 1
    35   16   17 1
    36   16   54 1
    37   16   55 1
    38   17   18 1
    39   17   20 1
    40   17   71 1
    41   18   19 1
    42   18   56 1
    43   18   57 1
    44   19   58 1
    45   19   59 1
    46   20   21 1
    47   20   60 1
    48   20   61 1
    49   21   22 1
    50   21   62 1
    51   21   63 1
    52   22   35 am
    53   22   23 am
    54   23   24 2
    55   23   25 1
    56   25   30 ar
    57   25   26 ar
    58   26   27 ar
    59   26   64 1
    60   27   28 ar
    61   27   65 1
    62   28   29 ar
    63   28   66 1
    64   29   34 ar
    65   29   30 ar
    66   30   31 ar
    67   31   32 ar
    68   31   35 1
    69   32   33 ar
    70   32   67 1
    71   33   34 ar
    72   33   68 1
    73   34   69 1
    74   35   36 2
    75   37   70 1
@<TRIPOS>MOLECULE
CHEMBL1083672__5
   71    75     0     0     0
SMALL
USER_CHARGES

@<TRIPOS>ATOM
      1 C1          5.7657   -9.3159   -0.0448 C.2       1 <0>        -0.1882
      2 C2          4.5413   -8.8612    0.0551 C.2       1 <0>        -0.1485
      3 C3          3.5178   -9.6226    0.8574 C.3       1 <0>        -0.0466
      4 C4          2.9168   -8.7127    1.8976 C.ar      1 <0>        -0.1000
      5 C5          3.4313   -8.6934    3.1797 C.ar      1 <0>        -0.0757
      6 C6          2.8801   -7.8593    4.1345 C.ar      1 <0>        -0.1434
      7 C7          1.8130   -7.0422    3.8091 C.ar      1 <0>        -0.0838
      8 C8          1.2953   -7.0574    2.5287 C.ar      1 <0>        -0.2064
      9 C9          1.8501   -7.8898    1.5672 C.ar      1 <0>         0.1198
     10 O1          1.3461   -7.9026    0.3052 O.3       1 <0>        -0.2975
     11 C10         0.2476   -7.0291    0.0364 C.3       1 <0>         0.0300
     12 C11        -0.1799   -7.1818   -1.4247 C.3       1 <0>         0.0861
     13 C12        -1.4325   -6.3412   -1.6801 C.3       1 <0>        -0.0417
     14 N1         -1.8551   -6.5044   -3.0775 N.4       1 <0>        -0.3815
     15 C13        -2.9675   -5.5884   -3.3625 C.3       1 <0>        -0.0007
     16 C14        -3.3957   -5.7447   -4.8233 C.3       1 <0>         0.0273
     17 N2         -3.8090   -7.1344   -5.0637 N.3       1 <0>        -0.5329
     18 C15        -2.7131   -8.0651   -4.7587 C.3       1 <0>         0.0205
     19 C16        -2.2905   -7.8898   -3.2985 C.3       1 <0>        -0.0071
     20 C17        -4.2818   -7.3119   -6.4432 C.3       1 <0>         0.0444
     21 C18        -4.9313   -8.6898   -6.5864 C.3       1 <0>         0.0983
     22 N3         -5.4028   -8.8668   -7.9621 N.am      1 <0>        -0.5616
     23 C19        -6.6541   -8.4788   -8.2735 C.2       1 <0>         0.5738
     24 O2         -7.3673   -7.9925   -7.4169 O.2       1 <0>        -0.4882
     25 C20        -7.1627   -8.6394   -9.6437 C.ar      1 <0>        -0.1717
     26 C21        -8.4443   -8.2537  -10.0081 C.ar      1 <0>         0.0027
     27 C22        -8.8799   -8.4264  -11.3166 C.ar      1 <0>        -0.1408
     28 C23        -8.0732   -8.9733  -12.2730 C.ar      1 <0>        -0.0402
     29 C24        -6.7673   -9.3774  -11.9449 C.ar      1 <0>        -0.0788
     30 C25        -6.3134   -9.2074  -10.6203 C.ar      1 <0>         0.0111
     31 C26        -5.0059   -9.6042  -10.2589 C.ar      1 <0>        -0.1724
     32 C27        -4.1800  -10.1606  -11.2245 C.ar      1 <0>         0.0022
     33 C28        -4.6387  -10.3224  -12.5265 C.ar      1 <0>        -0.1418
     34 C29        -5.8985   -9.9449  -12.8934 C.ar      1 <0>        -0.0393
     35 C30        -4.5670   -9.4064   -8.8696 C.2       1 <0>         0.5760
     36 O3         -3.4446   -9.7359   -8.5372 O.2       1 <0>        -0.4972
     37 O4          0.8754   -6.7359   -2.2788 O.3       1 <0>        -0.5423
     38 H1          6.0418  -10.2365    0.4479 H         1 <0>         0.0983
     39 H2          6.4981   -8.7726   -0.6235 H         1 <0>         0.0992
     40 H3          4.2653   -7.9406   -0.4377 H         1 <0>         0.1060
     41 H4          2.7324   -9.9849    0.1942 H         1 <0>         0.0827
     42 H5          3.9977  -10.4690    1.3487 H         1 <0>         0.0779
     43 H6          4.2647   -9.3307    3.4363 H         1 <0>         0.1332
     44 H7          3.2833   -7.8462    5.1364 H         1 <0>         0.1294
     45 H8          1.3839   -6.3917    4.5569 H         1 <0>         0.1279
     46 H9          0.4619   -6.4191    2.2751 H         1 <0>         0.1235
     47 H10        -0.5879   -7.2849    0.6881 H         1 <0>         0.0808
     48 H11         0.5496   -5.9981    0.2207 H         1 <0>         0.0758
     49 H12        -0.3970   -8.2297   -1.6321 H         1 <0>         0.1342
     50 H13        -2.2328   -6.6710   -1.0176 H         1 <0>         0.1460
     51 H14        -1.2110   -5.2914   -1.4878 H         1 <0>         0.1392
     52 H15        -3.8084   -5.8241   -2.7102 H         1 <0>         0.1405
     53 H16        -2.6471   -4.5617   -3.1856 H         1 <0>         0.1370
     54 H17        -4.2309   -5.0758   -5.0309 H         1 <0>         0.1265
     55 H18        -2.5591   -5.4959   -5.4761 H         1 <0>         0.0629
     56 H19        -3.0503   -9.0891   -4.9193 H         1 <0>         0.1269
     57 H20        -1.8652   -7.8546   -5.4105 H         1 <0>         0.0667
     58 H21        -1.4682   -8.5692   -3.0741 H         1 <0>         0.1379
     59 H22        -3.1348   -8.1136   -2.6465 H         1 <0>         0.1406
     60 H23        -5.0135   -6.5391   -6.6787 H         1 <0>         0.0947
     61 H24        -3.4383   -7.2348   -7.1291 H         1 <0>         0.0542
     62 H25        -4.1996   -9.4626   -6.3509 H         1 <0>         0.0981
     63 H26        -5.7748   -8.7670   -5.9004 H         1 <0>         0.1112
     64 H27        -9.1053   -7.8185   -9.2732 H         1 <0>         0.1473
     65 H28        -9.8808   -8.1210  -11.5834 H         1 <0>         0.1433
     66 H29        -8.4386   -9.0957  -13.2818 H         1 <0>         0.1449
     67 H30        -3.1781  -10.4684  -10.9641 H         1 <0>         0.1462
     68 H31        -3.9827  -10.7574  -13.2660 H         1 <0>         0.1430
     69 H32        -6.2281  -10.0830  -13.9126 H         1 <0>         0.1449
     70 H33         1.1218   -5.8099   -2.1489 H         1 <0>         0.3893
     71 H34        -1.0812   -6.2936   -3.6896 H         1 <0>         0.4262
@<TRIPOS>BOND
     1    1    2 2
     2    1   38 1
     3    1   39 1
     4    2    3 1
     5    2   40 1
     6    3    4 1
     7    3   41 1
     8    3   42 1
     9    4    9 ar
    10    4    5 ar
    11    5    6 ar
    12    5   43 1
    13    6    7 ar
    14    6   44 1
    15    7    8 ar
    16    7   45 1
    17    8    9 ar
    18    8   46 1
    19    9   10 1
    20   10   11 1
    21   11   12 1
    22   11   47 1
    23   11   48 1
    24   12   13 1
    25   12   37 1
    26   12   49 1
    27   13   14 1
    28   13   50 1
    29   13   51 1
    30   14   19 1
    31   14   15 1
    32   14   71 1
    33   15   16 1
    34   15   52 1
    35   15   53 1
    36   16   17 1
    37   16   54 1
    38   16   55 1
    39   17   18 1
    40   17   20 1
    41   18   19 1
    42   18   56 1
    43   18   57 1
    44   19   58 1
    45   19   59 1
    46   20   21 1
    47   20   60 1
    48   20   61 1
    49   21   22 1
    50   21   62 1
    51   21   63 1
    52   22   35 am
    53   22   23 am
    54   23   24 2
    55   23   25 1
    56   25   30 ar
    57   25   26 ar
    58   26   27 ar
    59   26   64 1
    60   27   28 ar
    61   27   65 1
    62   28   29 ar
    63   28   66 1
    64   29   34 ar
    65   29   30 ar
    66   30   31 ar
    67   31   32 ar
    68   31   35 1
    69   32   33 ar
    70   32   67 1
    71   33   34 ar
    72   33   68 1
    73   34   69 1
    74   35   36 2
    75   37   70 1
@<TRIPOS>MOLECULE
CHEMBL181440
   67    70     0     0     0
SMALL
USER_CHARGES

@<TRIPOS>ATOM
      1 C1         -0.0187    1.5258    0.0104 C.3       1 <0>        -0.1844
      2 C2          0.0021   -0.0041    0.0020 C.3       1 <0>         0.0272
      3 H1         -1.0205   -0.3814    0.0098 H         1 <0>         0.1403
      4 C3          0.7421   -0.5109    1.2415 C.3       1 <0>        -0.0579
      5 C4          0.6567   -2.0144    1.2978 C.2       1 <0>        -0.2310
      6 C5         -0.2496   -2.7379    1.9742 C.2       1 <0>         0.1128
      7 N1         -0.0127   -4.0722    1.7894 N.pl3     1 <0>        -0.5695
      8 H2         -0.5361   -4.7904    2.1782 H         1 <0>         0.4296
      9 C6          1.0807   -4.2438    0.9680 C.ar      1 <0>         0.1200
     10 C7          1.5430   -2.9632    0.6196 C.ar      1 <0>        -0.1031
     11 C8          2.6511   -2.8259   -0.2206 C.ar      1 <0>        -0.0884
     12 C9          3.2801   -3.9382   -0.7043 C.ar      1 <0>        -0.1081
     13 C10         2.8283   -5.2067   -0.3686 C.ar      1 <0>        -0.1038
     14 C11         1.7394   -5.3674    0.4678 C.ar      1 <0>         0.0751
     15 O1          1.3029   -6.6143    0.7889 O.3       1 <0>        -0.6606
     16 S1          0.2696   -7.1763   -0.1770 S.o2      1 <0>         2.5866
     17 O2         -0.2354   -8.3376    0.4676 O.2       1 <0>        -0.9170
     18 O3         -0.5864   -6.0805   -0.4702 O.2       1 <0>        -0.9575
     19 C12         1.2158   -7.6423   -1.6528 C.3       1 <0>        -0.6936
     20 N2          0.6897   -0.4778   -1.2066 N.4       1 <0>        -0.5062
     21 C13        -0.0856   -0.0931   -2.3936 C.3       1 <0>        -0.0486
     22 C14         0.6305   -0.5866   -3.6524 C.3       1 <0>         0.1355
     23 H3          0.7239   -1.6719   -3.6155 H         1 <0>         0.1310
     24 C15        -0.1648   -0.1919   -4.8701 C.ar      1 <0>        -0.1219
     25 C16         0.0062    1.0609   -5.4306 C.ar      1 <0>        -0.1147
     26 C17        -0.7218    1.4272   -6.5475 C.ar      1 <0>        -0.0844
     27 C18        -1.6223    0.5422   -7.1077 C.ar      1 <0>        -0.1364
     28 C19        -1.7961   -0.7168   -6.5476 C.ar      1 <0>         0.1569
     29 C20        -1.0592   -1.0835   -5.4283 C.ar      1 <0>        -0.1153
     30 N3         -2.7059   -1.6142   -7.1114 N.pl3     1 <0>        -1.0590
     31 S2         -2.7487   -1.8282   -8.7530 S.o2      1 <0>         2.6868
     32 O4         -3.7446   -2.8090   -9.0089 O.2       1 <0>        -0.9403
     33 O5         -2.7911   -0.5306   -9.3307 O.2       1 <0>        -0.9423
     34 C21        -1.2078   -2.5398   -9.2259 C.ar      1 <0>        -0.6787
     35 C22        -0.1433   -1.7239   -9.5607 C.ar      1 <0>        -0.0178
     36 C23         1.0656   -2.2822   -9.9317 C.ar      1 <0>        -0.1379
     37 C24         1.2102   -3.6565   -9.9676 C.ar      1 <0>        -0.0569
     38 C25         0.1461   -4.4724   -9.6320 C.ar      1 <0>        -0.1383
     39 C26        -1.0616   -3.9141   -9.2568 C.ar      1 <0>        -0.0195
     40 O6          1.9312    0.0013   -3.7219 O.3       1 <0>        -0.5455
     41 H4          1.0039    1.9031    0.0027 H         1 <0>         0.0839
     42 H5         -0.5459    1.8868   -0.8726 H         1 <0>         0.0816
     43 H6         -0.5289    1.8773    0.9072 H         1 <0>         0.1085
     44 H7          1.7879   -0.2080    1.1895 H         1 <0>         0.0975
     45 H8          0.2852   -0.0874    2.1360 H         1 <0>         0.1218
     46 H9         -1.0473   -2.3272    2.5754 H         1 <0>         0.1860
     47 H10         3.0094   -1.8426   -0.4874 H         1 <0>         0.1299
     48 H11         4.1360   -3.8293   -1.3538 H         1 <0>         0.1493
     49 H12         3.3361   -6.0763   -0.7590 H         1 <0>         0.1526
     50 H13         1.9641   -8.3880   -1.3841 H         1 <0>         0.1398
     51 H14         0.5408   -8.0581   -2.4009 H         1 <0>         0.1425
     52 H15         1.7111   -6.7609   -2.0602 H         1 <0>         0.1309
     53 H16         1.6080   -0.0627   -1.2556 H         1 <0>         0.4259
     54 H17        -1.0777   -0.5415   -2.3406 H         1 <0>         0.1444
     55 H18        -0.1790    0.9922   -2.4305 H         1 <0>         0.1413
     56 H19         0.7097    1.7547   -4.9946 H         1 <0>         0.1271
     57 H20        -0.5864    2.4065   -6.9823 H         1 <0>         0.1404
     58 H21        -2.1909    0.8290   -7.9799 H         1 <0>         0.1660
     59 H22        -1.1890   -2.0633   -4.9928 H         1 <0>         0.1337
     60 H23        -3.3127   -2.1121   -6.5415 H         1 <0>         0.4303
     61 H24        -0.2563   -0.6501   -9.5327 H         1 <0>         0.1389
     62 H25         1.8970   -1.6447  -10.1940 H         1 <0>         0.1358
     63 H26         2.1545   -4.0927  -10.2582 H         1 <0>         0.1348
     64 H27         0.2590   -5.5462   -9.6603 H         1 <0>         0.1364
     65 H28        -1.8919   -4.5516   -8.9910 H         1 <0>         0.1413
     66 H29         1.9246    0.9676   -3.7575 H         1 <0>         0.3883
     67 H30         0.7761   -1.4825   -1.1724 H         1 <0>         0.4279
@<TRIPOS>BOND
     1    1    2 1
     2    1   41 1
     3    1   42 1
     4    1   43 1
     5    2    3 1
     6    2    4 1
     7    2   20 1
     8    4    5 1
     9    4   44 1
    10    4   45 1
    11    5   10 1
    12    5    6 2
    13    6    7 1
    14    6   46 1
    15    7    8 1
    16    7    9 1
    17    9   14 ar
    18    9   10 ar
    19   10   11 ar
    20   11   12 ar
    21   11   47 1
    22   12   13 ar
    23   12   48 1
    24   13   14 ar
    25   13   49 1
    26   14   15 1
    27   15   16 1
    28   16   17 2
    29   16   18 2
    30   16   19 1
    31   19   50 1
    32   19   51 1
    33   19   52 1
    34   20   21 1
    35   20   53 1
    36   20   67 1
    37   21   22 1
    38   21   54 1
    39   21   55 1
    40   22   23 1
    41   22   24 1
    42   22   40 1
    43   24   29 ar
    44   24   25 ar
    45   25   26 ar
    46   25   56 1
    47   26   27 ar
    48   26   57 1
    49   27   28 ar
    50   27   58 1
    51   28   29 ar
    52   28   30 1
    53   29   59 1
    54   30   31 1
    55   30   60 1
    56   31   32 2
    57   31   33 2
    58   31   34 1
    59   34   39 ar
    60   34   35 ar
    61   35   36 ar
    62   35   61 1
    63   36   37 ar
    64   36   62 1
    65   37   38 ar
    66   37   63 1
    67   38   39 ar
    68   38   64 1
    69   39   65 1
    70   40   66 1
@<TRIPOS>MOLECULE
CHEMBL181440__1
   66    69     0     0     0
SMALL
USER_CHARGES

@<TRIPOS>ATOM
      1 C1         -0.0187    1.5258    0.0104 C.3       1 <0>        -0.1835
      2 C2          0.0021   -0.0041    0.0020 C.3       1 <0>         0.0262
      3 H1          0.5293   -0.3651    0.8851 H         1 <0>         0.1395
      4 C3          0.7182   -0.4975   -1.2568 C.3       1 <0>        -0.0569
      5 C4          0.8473   -1.9981   -1.2057 C.2       1 <0>        -0.2263
      6 C5          1.9041   -2.6937   -0.7564 C.2       1 <0>         0.1089
      7 N1          1.6592   -4.0349   -0.8646 N.pl3     1 <0>        -0.5706
      8 H2          2.2753   -4.7370   -0.6031 H         1 <0>         0.4279
      9 C6          0.4058   -4.2399   -1.4002 C.ar      1 <0>         0.1203
     10 C7         -0.1590   -2.9739   -1.6310 C.ar      1 <0>        -0.1022
     11 C8         -1.4436   -2.8707   -2.1710 C.ar      1 <0>        -0.0842
     12 C9         -2.1488   -4.0022   -2.4700 C.ar      1 <0>        -0.1086
     13 C10        -1.6006   -5.2565   -2.2421 C.ar      1 <0>        -0.1027
     14 C11        -0.3282   -5.3834   -1.7167 C.ar      1 <0>         0.0718
     15 O1          0.1992   -6.6167   -1.4948 O.3       1 <0>        -0.6623
     16 S1         -0.1065   -7.1817   -0.1151 S.o2      1 <0>         2.5854
     17 O2          0.7331   -8.3219    0.0040 O.2       1 <0>        -0.9227
     18 O3          0.0398   -6.0788    0.7690 O.2       1 <0>        -0.9518
     19 C12        -1.8455   -7.6918   -0.1951 C.3       1 <0>        -0.6930
     20 N2         -1.3761   -0.5125    0.0124 N.4       1 <0>        -0.5058
     21 C13        -2.0260   -0.1396    1.2760 C.3       1 <0>        -0.0469
     22 C14        -3.4614   -0.6692    1.2868 C.3       1 <0>         0.1418
     23 H3         -3.4489   -1.7549    1.1913 H         1 <0>         0.1239
     24 C15        -4.1282   -0.2867    2.5830 C.ar      1 <0>        -0.1019
     25 C16        -4.7304    0.9519    2.7108 C.ar      1 <0>        -0.2188
     26 C17        -5.3429    1.3070    3.8984 C.ar      1 <0>        -0.0574
     27 C18        -5.3556    0.4252    4.9614 C.ar      1 <0>        -0.2489
     28 C19        -4.7522   -0.8195    4.8364 C.ar      1 <0>         0.2864
     29 C20        -4.1422   -1.1752    3.6398 C.ar      1 <0>        -0.1678
     30 N3         -4.7632   -1.7137    5.9093 N.2       1 <0>        -1.0885
     31 S2         -5.4963   -1.2903    7.3326 S.o2      1 <0>         2.6091
     32 O4         -4.7381   -0.2187    7.8767 O.2       1 <0>        -1.0270
     33 O5         -6.8855   -1.1771    7.0559 O.2       1 <0>        -1.0252
     34 C21        -5.3120   -2.6498    8.4381 C.ar      1 <0>        -0.6195
     35 C22        -6.2691   -3.6467    8.4733 C.ar      1 <0>        -0.0250
     36 C23        -6.1245   -4.7133    9.3406 C.ar      1 <0>        -0.1459
     37 C24        -5.0227   -4.7833   10.1725 C.ar      1 <0>        -0.0805
     38 C25        -4.0652   -3.7869   10.1367 C.ar      1 <0>        -0.1464
     39 C26        -4.2076   -2.7225    9.2663 C.ar      1 <0>        -0.0256
     40 O6         -4.1863   -0.1032    0.1931 O.3       1 <0>        -0.5542
     41 H4          1.0039    1.9031    0.0027 H         1 <0>         0.1043
     42 H5         -0.5459    1.8868   -0.8726 H         1 <0>         0.0815
     43 H6         -0.5289    1.8773    0.9072 H         1 <0>         0.0851
     44 H7          0.1430   -0.2121   -2.1375 H         1 <0>         0.0956
     45 H8          1.7103   -0.0491   -1.3098 H         1 <0>         0.1185
     46 H9          2.8129   -2.2587   -0.3676 H         1 <0>         0.1849
     47 H10        -1.8783   -1.8987   -2.3513 H         1 <0>         0.1312
     48 H11        -3.1416   -3.9196   -2.8869 H         1 <0>         0.1494
     49 H12        -2.1705   -6.1415   -2.4837 H         1 <0>         0.1515
     50 H13        -1.9681   -8.4435   -0.9748 H         1 <0>         0.1373
     51 H14        -2.1454   -8.1119    0.7649 H         1 <0>         0.1432
     52 H15        -2.4678   -6.8266   -0.4234 H         1 <0>         0.1330
     53 H16        -1.8879   -0.1129   -0.7598 H         1 <0>         0.4227
     54 H17        -1.4732   -0.5714    2.1102 H         1 <0>         0.1446
     55 H18        -2.0386    0.9461    1.3715 H         1 <0>         0.1389
     56 H19        -4.7219    1.6433    1.8812 H         1 <0>         0.1005
     57 H20        -5.8115    2.2752    3.9951 H         1 <0>         0.1088
     58 H21        -5.8339    0.7034    5.8889 H         1 <0>         0.1023
     59 H22        -3.6756   -2.1439    3.5379 H         1 <0>         0.1148
     60 H23        -7.1299   -3.5920    7.8233 H         1 <0>         0.1358
     61 H24        -6.8726   -5.4918    9.3686 H         1 <0>         0.1275
     62 H25        -4.9102   -5.6163   10.8507 H         1 <0>         0.1253
     63 H26        -3.2046   -3.8414   10.7869 H         1 <0>         0.1272
     64 H27        -3.4577   -1.9459    9.2357 H         1 <0>         0.1352
     65 H28        -4.2382    0.8622    0.2132 H         1 <0>         0.3843
     66 H29        -1.3644   -1.5176   -0.0760 H         1 <0>         0.4256
@<TRIPOS>BOND
     1    1    2 1
     2    1   41 1
     3    1   42 1
     4    1   43 1
     5    2    3 1
     6    2    4 1
     7    2   20 1
     8    4    5 1
     9    4   44 1
    10    4   45 1
    11    5   10 1
    12    5    6 2
    13    6    7 1
    14    6   46 1
    15    7    8 1
    16    7    9 1
    17    9   14 ar
    18    9   10 ar
    19   10   11 ar
    20   11   12 ar
    21   11   47 1
    22   12   13 ar
    23   12   48 1
    24   13   14 ar
    25   13   49 1
    26   14   15 1
    27   15   16 1
    28   16   17 2
    29   16   18 2
    30   16   19 1
    31   19   50 1
    32   19   51 1
    33   19   52 1
    34   20   21 1
    35   20   53 1
    36   20   66 1
    37   21   22 1
    38   21   54 1
    39   21   55 1
    40   22   23 1
    41   22   24 1
    42   22   40 1
    43   24   29 ar
    44   24   25 ar
    45   25   26 ar
    46   25   56 1
    47   26   27 ar
    48   26   57 1
    49   27   28 ar
    50   27   58 1
    51   28   29 ar
    52   28   30 1
    53   29   59 1
    54   30   31 1
    55   31   32 2
    56   31   33 2
    57   31   34 1
    58   34   39 ar
    59   34   35 ar
    60   35   36 ar
    61   35   60 1
    62   36   37 ar
    63   36   61 1
    64   37   38 ar
    65   37   62 1
    66   38   39 ar
    67   38   63 1
    68   39   64 1
    69   40   65 1
@<TRIPOS>MOLECULE
CHEMBL400392
   57    60     0     0     0
SMALL
USER_CHARGES

@<TRIPOS>ATOM
      1 C1         -0.0167    1.3776    0.0096 C.ar      1 <0>        -0.1644
      2 C2          1.1849    2.0698    0.0019 C.ar      1 <0>        -0.0547
      3 C3          2.3651    1.3426   -0.0133 C.ar      1 <0>        -0.2005
      4 C4          2.3054   -0.0383   -0.0202 C.ar      1 <0>         0.1179
      5 N1          1.1443   -0.6632   -0.0129 N.ar      1 <0>        -0.4746
      6 C5          0.0021   -0.0041    0.0020 C.ar      1 <0>         0.1223
      7 C6          3.6964    2.0488   -0.0227 C.3       1 <0>         0.1415
      8 H1          3.5852    3.0397    0.4177 H         1 <0>         0.1336
      9 C7          4.1918    2.1840   -1.4640 C.3       1 <0>        -0.0435
     10 N2          5.4895    2.8724   -1.4731 N.4       1 <0>        -0.5061
     11 C8          5.9652    3.0022   -2.8569 C.3       1 <0>         0.0005
     12 C9          7.3168    3.7191   -2.8665 C.3       1 <0>         0.0241
     13 O1          8.2908    2.9082   -2.2064 O.3       1 <0>        -0.3279
     14 C10         9.5542    3.4030   -2.1272 C.ar      1 <0>         0.1161
     15 C11         9.8462    4.6468   -2.6696 C.ar      1 <0>        -0.2008
     16 C12        11.1275    5.1516   -2.5908 C.ar      1 <0>        -0.0644
     17 C13        12.1292    4.4115   -1.9653 C.ar      1 <0>        -0.0354
     18 C14        11.8328    3.1631   -1.4212 C.ar      1 <0>        -0.0455
     19 C15        10.5485    2.6659   -1.4989 C.ar      1 <0>        -0.1404
     20 C16        13.5085    4.9514   -1.8792 C.2       1 <0>         0.1003
     21 C17        13.8154    6.2155   -2.3061 C.2       1 <0>        -0.2333
     22 S1         15.5641    6.2681   -1.9499 S.3       1 <0>         0.1327
     23 C18        15.7208    4.7190   -1.3120 C.2       1 <0>         0.0784
     24 N3         14.5071    4.2372   -1.3799 N.2       1 <0>        -0.5156
     25 C19        16.9627    4.0488   -0.7831 C.3       1 <0>        -0.0091
     26 C20        17.5757    4.8930    0.3532 C.3       1 <0>        -0.1187
     27 C21        19.1046    4.7459    0.1535 C.3       1 <0>        -0.1248
     28 C22        19.2506    4.7580   -1.3885 C.3       1 <0>        -0.1272
     29 C23        18.0276    3.9629   -1.8905 C.3       1 <0>        -0.1194
     30 O2          4.6418    1.2932    0.7371 O.3       1 <0>        -0.5450
     31 H2         -0.9552    1.9117    0.0259 H         1 <0>         0.1472
     32 H3          1.2009    3.1496    0.0072 H         1 <0>         0.1410
     33 H4          3.2203   -0.6121   -0.0320 H         1 <0>         0.1534
     34 H5         -0.9294   -0.5505    0.0083 H         1 <0>         0.1672
     35 H6          4.3030    1.1932   -1.9044 H         1 <0>         0.1390
     36 H7          3.4707    2.7604   -2.0435 H         1 <0>         0.1456
     37 H8          5.3866    3.7896   -1.0655 H         1 <0>         0.4290
     38 H9          6.0764    2.0113   -3.2973 H         1 <0>         0.1439
     39 H10         5.2440    3.5785   -3.4365 H         1 <0>         0.1523
     40 H11         7.6277    3.8946   -3.8964 H         1 <0>         0.1117
     41 H12         7.2257    4.6730   -2.3469 H         1 <0>         0.0885
     42 H13         9.0695    5.2198   -3.1543 H         1 <0>         0.1312
     43 H14        11.3542    6.1191   -3.0137 H         1 <0>         0.1332
     44 H15        12.6070    2.5872   -0.9362 H         1 <0>         0.1453
     45 H16        10.3173    1.7002   -1.0742 H         1 <0>         0.1366
     46 H17        13.1766    6.9714   -2.7385 H         1 <0>         0.1965
     47 H18        16.7214    3.0502   -0.4189 H         1 <0>         0.1069
     48 H19        17.2770    5.9369    0.2567 H         1 <0>         0.0704
     49 H20        17.2781    4.4984    1.3248 H         1 <0>         0.0770
     50 H21        19.6350    5.5878    0.5983 H         1 <0>         0.0746
     51 H22        19.4592    3.8020    0.5677 H         1 <0>         0.0739
     52 H23        19.2224    5.7800   -1.7663 H         1 <0>         0.0692
     53 H24        20.1753    4.2648   -1.6880 H         1 <0>         0.0740
     54 H25        18.3037    2.9227   -2.0631 H         1 <0>         0.0789
     55 H26        17.6462    4.4060   -2.8105 H         1 <0>         0.0675
     56 H27         4.7910    0.3986    0.4015 H         1 <0>         0.3905
     57 H28         6.1570    2.3389   -0.9367 H         1 <0>         0.4397
@<TRIPOS>BOND
     1    1    6 ar
     2    1    2 ar
     3    1   31 1
     4    2    3 ar
     5    2   32 1
     6    3    4 ar
     7    3    7 1
     8    4    5 ar
     9    4   33 1
    10    5    6 ar
    11    6   34 1
    12    7    8 1
    13    7    9 1
    14    7   30 1
    15    9   10 1
    16    9   35 1
    17    9   36 1
    18   10   11 1
    19   10   37 1
    20   10   57 1
    21   11   12 1
    22   11   38 1
    23   11   39 1
    24   12   13 1
    25   12   40 1
    26   12   41 1
    27   13   14 1
    28   14   19 ar
    29   14   15 ar
    30   15   16 ar
    31   15   42 1
    32   16   17 ar
    33   16   43 1
    34   17   18 ar
    35   17   20 1
    36   18   19 ar
    37   18   44 1
    38   19   45 1
    39   20   24 1
    40   20   21 2
    41   21   22 1
    42   21   46 1
    43   22   23 1
    44   23   24 2
    45   23   25 1
    46   25   29 1
    47   25   26 1
    48   25   47 1
    49   26   27 1
    50   26   48 1
    51   26   49 1
    52   27   28 1
    53   27   50 1
    54   27   51 1
    55   28   29 1
    56   28   52 1
    57   28   53 1
    58   29   54 1
    59   29   55 1
    60   30   56 1
@<TRIPOS>MOLECULE
CHEMBL400392__1
   56    59     0     0     0
SMALL
USER_CHARGES

@<TRIPOS>ATOM
      1 C1         -0.0167    1.3776    0.0096 C.ar      1 <0>        -0.1693
      2 C2          1.1849    2.0698    0.0019 C.ar      1 <0>        -0.0658
      3 C3          2.3651    1.3426   -0.0133 C.ar      1 <0>        -0.1721
      4 C4          2.3054   -0.0383   -0.0202 C.ar      1 <0>         0.1097
      5 N1          1.1443   -0.6632   -0.0129 N.ar      1 <0>        -0.4802
      6 C5          0.0021   -0.0041    0.0020 C.ar      1 <0>         0.0993
      7 C6          3.6964    2.0488   -0.0227 C.3       1 <0>         0.1587
      8 H1          3.5852    3.0397    0.4177 H         1 <0>         0.1071
      9 C7          4.1918    2.1840   -1.4640 C.3       1 <0>         0.0315
     10 N2          5.4895    2.8724   -1.4731 N.3       1 <0>        -0.6726
     11 C8          5.9972    3.0204   -2.8436 C.3       1 <0>         0.0593
     12 C9          7.3471    3.7400   -2.8125 C.3       1 <0>         0.0618
     13 O1          8.3071    2.9228   -2.1399 O.3       1 <0>        -0.2945
     14 C10         9.5672    3.4190   -2.0248 C.ar      1 <0>         0.1419
     15 C11         9.8691    4.6701   -2.5447 C.ar      1 <0>        -0.2131
     16 C12        11.1470    5.1763   -2.4296 C.ar      1 <0>        -0.0608
     17 C13        12.1355    4.4304   -1.7899 C.ar      1 <0>        -0.0658
     18 C14        11.8291    3.1747   -1.2685 C.ar      1 <0>        -0.0435
     19 C15        10.5482    2.6760   -1.3826 C.ar      1 <0>        -0.1527
     20 C16        13.5112    4.9718   -1.6647 C.2       1 <0>         0.1162
     21 C17        13.8251    6.2418   -2.0685 C.2       1 <0>        -0.2363
     22 S1         15.5649    6.2933   -1.6707 S.3       1 <0>         0.1092
     23 C18        15.7101    4.7367   -1.0486 C.2       1 <0>         0.0745
     24 N3         14.4994    4.2534   -1.1510 N.2       1 <0>        -0.5126
     25 C19        16.9407    4.0623   -0.4991 C.3       1 <0>        -0.0074
     26 C20        17.5249    4.8935    0.6618 C.3       1 <0>        -0.1188
     27 C21        19.0584    4.7518    0.4962 C.3       1 <0>        -0.1242
     28 C22        19.2405    4.7834   -1.0416 C.3       1 <0>        -0.1263
     29 C23        18.0315    3.9923   -1.5821 C.3       1 <0>        -0.1192
     30 O2          4.6418    1.2932    0.7371 O.3       1 <0>        -0.5371
     31 H2         -0.9552    1.9117    0.0259 H         1 <0>         0.1382
     32 H3          1.2009    3.1496    0.0072 H         1 <0>         0.1353
     33 H4          3.2203   -0.6121   -0.0320 H         1 <0>         0.1536
     34 H5         -0.9294   -0.5505    0.0083 H         1 <0>         0.1583
     35 H6          4.3030    1.1932   -1.9044 H         1 <0>         0.0799
     36 H7          3.4707    2.7604   -2.0435 H         1 <0>         0.0406
     37 H8          5.4272    3.7677   -1.0120 H         1 <0>         0.3429
     38 H9          6.1210    2.0353   -3.2936 H         1 <0>         0.0862
     39 H10         5.2886    3.6025   -3.4328 H         1 <0>         0.0528
     40 H11         7.6817    3.9289   -3.8325 H         1 <0>         0.0689
     41 H12         7.2417    4.6872   -2.2834 H         1 <0>         0.0629
     42 H13         9.1028    5.2475   -3.0403 H         1 <0>         0.1295
     43 H14        11.3815    6.1495   -2.8349 H         1 <0>         0.1259
     44 H15        12.5931    2.5943   -0.7726 H         1 <0>         0.1383
     45 H16        10.3092    1.7047   -0.9754 H         1 <0>         0.1348
     46 H17        13.1950    7.0018   -2.5064 H         1 <0>         0.1955
     47 H18        16.6931    3.0587   -0.1531 H         1 <0>         0.1060
     48 H19        17.2263    5.9378    0.5712 H         1 <0>         0.0708
     49 H20        17.2055    4.4862    1.6211 H         1 <0>         0.0764
     50 H21        19.5764    5.5891    0.9639 H         1 <0>         0.0727
     51 H22        19.4053    3.8035    0.9069 H         1 <0>         0.0726
     52 H23        19.2190    5.8101   -1.4072 H         1 <0>         0.0686
     53 H24        20.1732    4.2959   -1.3254 H         1 <0>         0.0718
     54 H25        18.3139    2.9549   -1.7611 H         1 <0>         0.0774
     55 H26        17.6708    4.4461   -2.5052 H         1 <0>         0.0681
     56 H27         4.7910    0.3986    0.4015 H         1 <0>         0.3752
@<TRIPOS>BOND
     1    1    6 ar
     2    1    2 ar
     3    1   31 1
     4    2    3 ar
     5    2   32 1
     6    3    4 ar
     7    3    7 1
     8    4    5 ar
     9    4   33 1
    10    5    6 ar
    11    6   34 1
    12    7    8 1
    13    7    9 1
    14    7   30 1
    15    9   10 1
    16    9   35 1
    17    9   36 1
    18   10   11 1
    19   10   37 1
    20   11   12 1
    21   11   38 1
    22   11   39 1
    23   12   13 1
    24   12   40 1
    25   12   41 1
    26   13   14 1
    27   14   19 ar
    28   14   15 ar
    29   15   16 ar
    30   15   42 1
    31   16   17 ar
    32   16   43 1
    33   17   18 ar
    34   17   20 1
    35   18   19 ar
    36   18   44 1
    37   19   45 1
    38   20   24 1
    39   20   21 2
    40   21   22 1
    41   21   46 1
    42   22   23 1
    43   23   24 2
    44   23   25 1
    45   25   29 1
    46   25   26 1
    47   25   47 1
    48   26   27 1
    49   26   48 1
    50   26   49 1
    51   27   28 1
    52   27   50 1
    53   27   51 1
    54   28   29 1
    55   28   52 1
    56   28   53 1
    57   29   54 1
    58   29   55 1
    59   30   56 1
@<TRIPOS>MOLECULE
CHEMBL1221732
   55    58     0     0     0
SMALL
USER_CHARGES

@<TRIPOS>ATOM
      1 C1         -0.0167    1.3781    0.0096 C.ar      1 <0>        -0.1049
      2 C2          1.1709    2.0855    0.0021 C.ar      1 <0>        -0.1199
      3 C3          2.3773    1.4107   -0.0130 C.ar      1 <0>        -0.1005
      4 C4          2.3960    0.0285   -0.0201 C.ar      1 <0>        -0.1055
      5 C5          1.2084   -0.6789   -0.0117 C.ar      1 <0>        -0.0953
      6 C6          0.0021   -0.0041    0.0020 C.ar      1 <0>        -0.1203
      7 C7          3.7112   -0.7071   -0.0376 C.3       1 <0>         0.1055
      8 O1          4.1410   -0.9464    1.3041 O.3       1 <0>        -0.3815
      9 C8          5.3853   -1.6423    1.4004 C.3       1 <0>         0.0715
     10 H1          6.0046   -1.4007    0.5366 H         1 <0>         0.0840
     11 C9          5.1252   -3.1496    1.4359 C.3       1 <0>        -0.1375
     12 C10         6.4575   -3.8948    1.5390 C.3       1 <0>        -0.1267
     13 C11         7.1807   -3.4718    2.8193 C.3       1 <0>        -0.1192
     14 C12         7.4408   -1.9645    2.7838 C.3       1 <0>        -0.1401
     15 C13         6.1085   -1.2193    2.6806 C.3       1 <0>         0.0312
     16 H2          5.4893   -1.4609    3.5445 H         1 <0>         0.1459
     17 N1          6.3582    0.2279    2.6466 N.4       1 <0>        -0.5020
     18 C14         6.9439    0.6540    3.9247 C.3       1 <0>        -0.0478
     19 C15         7.2040    2.1613    3.8892 C.3       1 <0>         0.1635
     20 H3          6.2639    2.6885    3.7266 H         1 <0>         0.1153
     21 C16         7.8048    2.5984    5.2003 C.ar      1 <0>        -0.2328
     22 C17         9.1784    2.7050    5.3343 C.ar      1 <0>        -0.0379
     23 C18         9.7083    3.1087    6.5474 C.ar      1 <0>        -0.2401
     24 C19         8.8934    3.4050    7.6198 C.ar      1 <0>         0.3003
     25 C20         7.4925    3.3047    7.5103 C.ar      1 <0>        -0.0289
     26 C21         6.9909    2.8983    6.2667 C.ar      1 <0>        -0.0475
     27 S1          5.2323    2.9023    6.5184 S.3       1 <0>        -0.1168
     28 C22         5.2298    3.4374    8.2217 C.2       1 <0>         0.5372
     29 O2          4.2805    3.6287    8.9591 O.2       1 <0>        -0.4761
     30 N2          6.5446    3.5648    8.4885 N.am      1 <0>        -0.6200
     31 H4          6.8302    3.8529    9.3696 H         1 <0>         0.4151
     32 O3          9.4488    3.7982    8.7970 O.3       1 <0>        -0.6870
     33 O4          8.1096    2.4635    2.8259 O.3       1 <0>        -0.5545
     34 H5         -0.9591    1.9053    0.0259 H         1 <0>         0.1268
     35 H6          1.1563    3.1654    0.0076 H         1 <0>         0.1276
     36 H7          3.3051    1.9634   -0.0196 H         1 <0>         0.1217
     37 H8          1.2231   -1.7588   -0.0176 H         1 <0>         0.1231
     38 H9         -0.9258   -0.5567    0.0082 H         1 <0>         0.1268
     39 H10         3.5884   -1.6586   -0.5549 H         1 <0>         0.0684
     40 H11         4.4573   -0.1052   -0.5563 H         1 <0>         0.0643
     41 H12         4.5060   -3.3913    2.2997 H         1 <0>         0.0839
     42 H13         4.6100   -3.4510    0.5238 H         1 <0>         0.0831
     43 H14         6.2722   -4.9686    1.5643 H         1 <0>         0.0813
     44 H15         7.0768   -3.6532    0.6752 H         1 <0>         0.0703
     45 H16         6.5614   -3.7134    3.6831 H         1 <0>         0.0773
     46 H17         8.1299   -4.0026    2.8927 H         1 <0>         0.0868
     47 H18         7.9560   -1.6631    3.6958 H         1 <0>         0.0975
     48 H19         8.0601   -1.7228    1.9199 H         1 <0>         0.0887
     49 H20         6.9977    0.4413    1.8958 H         1 <0>         0.4233
     50 H21         6.2531    0.4235    4.7357 H         1 <0>         0.1409
     51 H22         7.8840    0.1268    4.0872 H         1 <0>         0.1370
     52 H23         9.8283    2.4758    4.5028 H         1 <0>         0.1127
     53 H24        10.7795    3.1929    6.6563 H         1 <0>         0.1171
     54 H25         8.9691    2.0274    2.9054 H         1 <0>         0.3827
     55 H26         5.4880    0.7159    2.4961 H         1 <0>         0.4321
@<TRIPOS>BOND
     1    1    6 ar
     2    1    2 ar
     3    1   34 1
     4    2    3 ar
     5    2   35 1
     6    3    4 ar
     7    3   36 1
     8    4    5 ar
     9    4    7 1
    10    5    6 ar
    11    5   37 1
    12    6   38 1
    13    7    8 1
    14    7   39 1
    15    7   40 1
    16    8    9 1
    17    9   10 1
    18    9   15 1
    19    9   11 1
    20   11   12 1
    21   11   41 1
    22   11   42 1
    23   12   13 1
    24   12   43 1
    25   12   44 1
    26   13   14 1
    27   13   45 1
    28   13   46 1
    29   14   15 1
    30   14   47 1
    31   14   48 1
    32   15   16 1
    33   15   17 1
    34   17   18 1
    35   17   49 1
    36   17   55 1
    37   18   19 1
    38   18   50 1
    39   18   51 1
    40   19   20 1
    41   19   21 1
    42   19   33 1
    43   21   26 ar
    44   21   22 ar
    45   22   23 ar
    46   22   52 1
    47   23   24 ar
    48   23   53 1
    49   24   25 ar
    50   24   32 1
    51   25   30 1
    52   25   26 ar
    53   26   27 1
    54   27   28 1
    55   28   29 2
    56   28   30 am
    57   30   31 1
    58   33   54 1
@<TRIPOS>MOLECULE
CHEMBL490222
   65    68     0     0     0
SMALL
USER_CHARGES

@<TRIPOS>ATOM
      1 C1          9.7113  -15.0656   -1.4504 C.ar      1 <0>        -0.0940
      2 C2          9.8662  -14.3353   -2.6153 C.ar      1 <0>        -0.1341
      3 C3          9.7521  -12.9607   -2.5917 C.ar      1 <0>        -0.0609
      4 C4          9.4799  -12.3067   -1.3888 C.ar      1 <0>        -0.1355
      5 C5          9.3248  -13.0496   -0.2171 C.ar      1 <0>        -0.0757
      6 C6          9.4413  -14.4236   -0.2548 C.ar      1 <0>        -0.1277
      7 C7          9.3568  -10.8342   -1.3559 C.2       1 <0>         0.5554
      8 O1          9.4928  -10.1899   -2.3777 O.2       1 <0>        -0.5389
      9 N1          9.0939  -10.2058   -0.1929 N.am      1 <0>        -0.6391
     10 C8          9.0671   -8.8147   -0.1439 C.ar      1 <0>         0.1861
     11 C9          8.5813   -8.0886   -1.2235 C.ar      1 <0>        -0.1261
     12 C10         8.5541   -6.7103   -1.1753 C.ar      1 <0>        -0.1024
     13 C11         9.0117   -6.0365   -0.0481 C.ar      1 <0>         0.0329
     14 C12         9.4985   -6.7430    1.0354 C.ar      1 <0>        -0.0768
     15 C13         9.5258   -8.1410    0.9994 C.ar      1 <0>        -0.1543
     16 C14        10.0373   -8.9010    2.1508 C.2       1 <0>         0.5288
     17 O2         10.5186   -8.3107    3.1083 O.co2     1 <0>        -0.6773
     18 O3          9.9813  -10.1231    2.1507 O.co2     1 <0>        -0.6796
     19 O4          8.9805   -4.6777   -0.0120 O.3       1 <0>        -0.2489
     20 C15        10.1523   -4.0083   -0.1704 C.ar      1 <0>         0.1390
     21 C16        10.1896   -2.6284   -0.0266 C.ar      1 <0>        -0.1380
     22 C17        11.3820   -1.9505   -0.1876 C.ar      1 <0>        -0.0796
     23 C18        12.5382   -2.6454   -0.4925 C.ar      1 <0>        -0.1510
     24 C19        12.5039   -4.0200   -0.6363 C.ar      1 <0>        -0.0701
     25 C20        11.3148   -4.7036   -0.4706 C.ar      1 <0>        -0.1814
     26 C21        13.7656   -4.7738   -0.9690 C.3       1 <0>        -0.0994
     27 C22        14.4715   -5.1832    0.3253 C.3       1 <0>        -0.0096
     28 N2         15.7014   -5.9180    0.0010 N.4       1 <0>        -0.5037
     29 C23        16.3791   -6.3110    1.2436 C.3       1 <0>        -0.0453
     30 C24        17.6601   -7.0764    0.9059 C.3       1 <0>         0.1372
     31 H1         18.3202   -6.4385    0.3181 H         1 <0>         0.1326
     32 C25        18.3553   -7.4796    2.1807 C.ar      1 <0>        -0.1280
     33 C26        17.9922   -8.6469    2.8266 C.ar      1 <0>        -0.0997
     34 C27        18.6294   -9.0174    3.9959 C.ar      1 <0>        -0.0951
     35 C28        19.6299   -8.2206    4.5205 C.ar      1 <0>        -0.0929
     36 C29        19.9936   -7.0526    3.8747 C.ar      1 <0>        -0.0328
     37 C30        19.3595   -6.6854    2.7009 C.ar      1 <0>        -0.0955
     38 Cl1        21.2499   -6.0515    4.5329 Cl        1 <0>        -0.0542
     39 O5         17.3319   -8.2453    0.1521 O.3       1 <0>        -0.5477
     40 H2          9.7971  -16.1419   -1.4752 H         1 <0>         0.1263
     41 H3         10.0771  -14.8426   -3.5452 H         1 <0>         0.1282
     42 H4          9.8736  -12.3918   -3.5016 H         1 <0>         0.1342
     43 H5          9.1143  -12.5496    0.7168 H         1 <0>         0.1375
     44 H6          9.3215  -14.9996    0.6510 H         1 <0>         0.1303
     45 H7          8.9233  -10.7227    0.6099 H         1 <0>         0.4294
     46 H8          8.2243   -8.6042   -2.1028 H         1 <0>         0.1453
     47 H9          8.1754   -6.1511   -2.0181 H         1 <0>         0.1292
     48 H10         9.8533   -6.2171    1.9094 H         1 <0>         0.1362
     49 H11         9.2868   -2.0852    0.2108 H         1 <0>         0.1364
     50 H12        11.4116   -0.8767   -0.0758 H         1 <0>         0.1336
     51 H13        13.4695   -2.1133   -0.6187 H         1 <0>         0.1230
     52 H14        11.2894   -5.7779   -0.5787 H         1 <0>         0.1340
     53 H15        13.5153   -5.6654   -1.5440 H         1 <0>         0.0964
     54 H16        14.4257   -4.1360   -1.5568 H         1 <0>         0.0960
     55 H17        14.7218   -4.2916    0.9002 H         1 <0>         0.1351
     56 H18        13.8114   -5.8211    0.9130 H         1 <0>         0.1389
     57 H19        15.4697   -6.7433   -0.5313 H         1 <0>         0.4331
     58 H20        16.6294   -5.4195    1.8186 H         1 <0>         0.1451
     59 H21        15.7190   -6.9489    1.8314 H         1 <0>         0.1417
     60 H22        17.2102   -9.2694    2.4175 H         1 <0>         0.1326
     61 H23        18.3454   -9.9293    4.4999 H         1 <0>         0.1429
     62 H24        20.1272   -8.5098    5.4345 H         1 <0>         0.1417
     63 H25        19.6461   -5.7759    2.1939 H         1 <0>         0.1375
     64 H26        16.7459   -8.8598    0.6146 H         1 <0>         0.3926
     65 H27        16.3125   -5.3275   -0.5431 H         1 <0>         0.4260
@<TRIPOS>BOND
     1    1    6 ar
     2    1    2 ar
     3    1   40 1
     4    2    3 ar
     5    2   41 1
     6    3    4 ar
     7    3   42 1
     8    4    5 ar
     9    4    7 1
    10    5    6 ar
    11    5   43 1
    12    6   44 1
    13    7    8 2
    14    7    9 am
    15    9   10 1
    16    9   45 1
    17   10   15 ar
    18   10   11 ar
    19   11   12 ar
    20   11   46 1
    21   12   13 ar
    22   12   47 1
    23   13   14 ar
    24   13   19 1
    25   14   15 ar
    26   14   48 1
    27   15   16 1
    28   16   17 2
    29   16   18 1
    30   19   20 1
    31   20   25 ar
    32   20   21 ar
    33   21   22 ar
    34   21   49 1
    35   22   23 ar
    36   22   50 1
    37   23   24 ar
    38   23   51 1
    39   24   25 ar
    40   24   26 1
    41   25   52 1
    42   26   27 1
    43   26   53 1
    44   26   54 1
    45   27   28 1
    46   27   55 1
    47   27   56 1
    48   28   29 1
    49   28   57 1
    50   28   65 1
    51   29   30 1
    52   29   58 1
    53   29   59 1
    54   30   31 1
    55   30   32 1
    56   30   39 1
    57   32   37 ar
    58   32   33 ar
    59   33   34 ar
    60   33   60 1
    61   34   35 ar
    62   34   61 1
    63   35   36 ar
    64   35   62 1
    65   36   37 ar
    66   36   38 1
    67   37   63 1
    68   39   64 1
@<TRIPOS>MOLECULE
CHEMBL524145
   65    68     0     0     0
SMALL
USER_CHARGES

@<TRIPOS>ATOM
      1 C1          8.6408    1.3828   -5.7321 C.ar      1 <0>        -0.0939
      2 C2          8.8596    1.9310   -4.4807 C.ar      1 <0>        -0.1259
      3 C3          8.4919    1.2372   -3.3465 C.ar      1 <0>        -0.0567
      4 C4          7.8975   -0.0205   -3.4634 C.ar      1 <0>        -0.1316
      5 C5          7.6793   -0.5675   -4.7290 C.ar      1 <0>        -0.0882
      6 C6          8.0522    0.1367   -5.8551 C.ar      1 <0>        -0.1282
      7 C7          7.5014   -0.7698   -2.2524 C.2       1 <0>         0.5512
      8 O1          7.6931   -0.2910   -1.1516 O.2       1 <0>        -0.4977
      9 N1          6.9278   -1.9838   -2.3687 N.am      1 <0>        -0.6682
     10 C8          6.6368   -2.7325   -1.2235 C.ar      1 <0>         0.1375
     11 C9          6.2259   -2.0928   -0.0639 C.ar      1 <0>        -0.0722
     12 C10         5.9355   -2.8417    1.0779 C.ar      1 <0>        -0.0983
     13 C11         6.0603   -4.2326    1.0463 C.ar      1 <0>        -0.0902
     14 C12         6.4713   -4.8631   -0.1163 C.ar      1 <0>         0.0632
     15 C13         6.7541   -4.1160   -1.2509 C.ar      1 <0>        -0.1647
     16 O2          6.5929   -6.2162   -0.1474 O.3       1 <0>        -0.2486
     17 C14         7.8438   -6.7454   -0.1071 C.ar      1 <0>         0.1401
     18 C15         8.9526   -5.9112   -0.1314 C.ar      1 <0>        -0.1779
     19 C16        10.2230   -6.4516   -0.0904 C.ar      1 <0>        -0.0744
     20 C17        10.3906   -7.8228   -0.0252 C.ar      1 <0>        -0.1506
     21 C18         9.2877   -8.6561   -0.0014 C.ar      1 <0>        -0.0776
     22 C19         8.0147   -8.1204   -0.0360 C.ar      1 <0>        -0.1445
     23 C20         9.4742  -10.1499    0.0686 C.3       1 <0>        -0.0947
     24 C21         9.5191  -10.5902    1.5332 C.3       1 <0>        -0.0092
     25 N2          9.7009  -12.0463    1.6015 N.4       1 <0>        -0.5047
     26 C22         9.7440  -12.4690    3.0077 C.3       1 <0>        -0.0436
     27 C23         9.9333  -13.9856    3.0788 C.3       1 <0>         0.1366
     28 H1         10.8678  -14.2584    2.5886 H         1 <0>         0.1337
     29 C24         9.9776  -14.4192    4.5214 C.ar      1 <0>        -0.1293
     30 C25         8.8018  -14.6726    5.2033 C.ar      1 <0>        -0.1024
     31 C26         8.8415  -15.0703    6.5264 C.ar      1 <0>        -0.0962
     32 C27        10.0570  -15.2146    7.1689 C.ar      1 <0>        -0.0921
     33 C28        11.2337  -14.9612    6.4872 C.ar      1 <0>        -0.0316
     34 C29        11.1935  -14.5690    5.1608 C.ar      1 <0>        -0.0948
     35 Cl1        12.7605  -15.1422    7.2933 Cl        1 <0>        -0.0503
     36 O3          8.8431  -14.6331    2.4200 O.3       1 <0>        -0.5466
     37 C30         5.4983   -2.1659    2.3148 C.2       1 <0>         0.5208
     38 O4          5.3900   -0.9480    2.3406 O.co2     1 <0>        -0.6698
     39 O5          5.2443   -2.8236    3.3139 O.co2     1 <0>        -0.6824
     40 H2          8.9268    1.9320   -6.6171 H         1 <0>         0.1279
     41 H3          9.3195    2.9041   -4.3917 H         1 <0>         0.1318
     42 H4          8.6639    1.6659   -2.3703 H         1 <0>         0.1398
     43 H5          7.2202   -1.5402   -4.8263 H         1 <0>         0.1245
     44 H6          7.8839   -0.2854   -6.8348 H         1 <0>         0.1291
     45 H7          6.7167   -2.3384   -3.2466 H         1 <0>         0.4065
     46 H8          6.1311   -1.0171   -0.0440 H         1 <0>         0.1535
     47 H9          5.8369   -4.8156    1.9276 H         1 <0>         0.1379
     48 H10         7.0701   -4.6117   -2.1570 H         1 <0>         0.1249
     49 H11         8.8223   -4.8403   -0.1826 H         1 <0>         0.1393
     50 H12        11.0862   -5.8029   -0.1095 H         1 <0>         0.1303
     51 H13        11.3848   -8.2434    0.0068 H         1 <0>         0.1231
     52 H14         7.1534   -8.7715   -0.0121 H         1 <0>         0.1321
     53 H15         8.6426  -10.6439   -0.4339 H         1 <0>         0.0965
     54 H16        10.4087  -10.4228   -0.4216 H         1 <0>         0.0964
     55 H17        10.3507  -10.0962    2.0358 H         1 <0>         0.1356
     56 H18         8.5846  -10.3173    2.0235 H         1 <0>         0.1364
     57 H19         8.9311  -12.5035    1.1363 H         1 <0>         0.4316
     58 H20        10.5756  -11.9751    3.5103 H         1 <0>         0.1458
     59 H21         8.8095  -12.1961    3.4979 H         1 <0>         0.1391
     60 H22         7.8519  -14.5593    4.7020 H         1 <0>         0.1306
     61 H23         7.9228  -15.2681    7.0586 H         1 <0>         0.1423
     62 H24        10.0879  -15.5247    8.2029 H         1 <0>         0.1425
     63 H25        12.1120  -14.3753    4.6267 H         1 <0>         0.1385
     64 H26         7.9779  -14.4352    2.8041 H         1 <0>         0.3897
     65 H27        10.5660  -12.2989    1.1477 H         1 <0>         0.4282
@<TRIPOS>BOND
     1    1    6 ar
     2    1    2 ar
     3    1   40 1
     4    2    3 ar
     5    2   41 1
     6    3    4 ar
     7    3   42 1
     8    4    5 ar
     9    4    7 1
    10    5    6 ar
    11    5   43 1
    12    6   44 1
    13    7    8 2
    14    7    9 am
    15    9   10 1
    16    9   45 1
    17   10   15 ar
    18   10   11 ar
    19   11   12 ar
    20   11   46 1
    21   12   13 ar
    22   12   37 1
    23   13   14 ar
    24   13   47 1
    25   14   15 ar
    26   14   16 1
    27   15   48 1
    28   16   17 1
    29   17   22 ar
    30   17   18 ar
    31   18   19 ar
    32   18   49 1
    33   19   20 ar
    34   19   50 1
    35   20   21 ar
    36   20   51 1
    37   21   22 ar
    38   21   23 1
    39   22   52 1
    40   23   24 1
    41   23   53 1
    42   23   54 1
    43   24   25 1
    44   24   55 1
    45   24   56 1
    46   25   26 1
    47   25   57 1
    48   25   65 1
    49   26   27 1
    50   26   58 1
    51   26   59 1
    52   27   28 1
    53   27   29 1
    54   27   36 1
    55   29   34 ar
    56   29   30 ar
    57   30   31 ar
    58   30   60 1
    59   31   32 ar
    60   31   61 1
    61   32   33 ar
    62   32   62 1
    63   33   34 ar
    64   33   35 1
    65   34   63 1
    66   36   64 1
    67   37   38 2
    68   37   39 1
@<TRIPOS>MOLECULE
CHEMBL1221736
   54    57     0     0     0
SMALL
USER_CHARGES

@<TRIPOS>ATOM
      1 C1          0.4673    0.8123    0.0522 C.ar      1 <0>        -0.0378
      2 C2          1.7133    1.4152    0.0295 C.ar      1 <0>        -0.2401
      3 C3          2.8668    0.6671   -0.0730 C.ar      1 <0>         0.3003
      4 C4          2.8100   -0.7384   -0.1575 C.ar      1 <0>        -0.0286
      5 C5          1.5333   -1.3141   -0.1312 C.ar      1 <0>        -0.0474
      6 C6          0.3837   -0.5665   -0.0293 C.ar      1 <0>        -0.2320
      7 C7         -0.9613   -1.2459   -0.0062 C.3       1 <0>         0.1629
      8 H1         -0.8795   -2.1958    0.5222 H         1 <0>         0.1143
      9 C8         -1.4297   -1.4988   -1.4406 C.3       1 <0>        -0.0501
     10 N1         -2.7407   -2.1610   -1.4180 N.4       1 <0>        -0.5085
     11 C9         -3.1905   -2.4039   -2.7952 C.3       1 <0>         0.0227
     12 C10        -3.5347   -1.0663   -3.4823 C.3       1 <0>        -0.1411
     13 C11        -4.7671   -1.3965   -4.3605 C.3       1 <0>        -0.1222
     14 C12        -5.5666   -2.3808   -3.4712 C.3       1 <0>        -0.1367
     15 C13        -4.4824   -3.2397   -2.7881 C.3       1 <0>        -0.1044
     16 C14        -4.8941   -3.5561   -1.3489 C.3       1 <0>        -0.1052
     17 C15        -5.5571   -2.3260   -0.7259 C.3       1 <0>        -0.1285
     18 C16        -5.9687   -2.6425    0.7133 C.3       1 <0>        -0.1252
     19 C17        -6.9567   -3.8107    0.7160 C.3       1 <0>        -0.1232
     20 C18        -6.2938   -5.0408    0.0930 C.3       1 <0>        -0.1248
     21 C19        -5.8821   -4.7243   -1.3462 C.3       1 <0>        -0.1092
     22 O1         -1.9064   -0.4085    0.6629 O.3       1 <0>        -0.5543
     23 S1          1.8709   -3.0539   -0.2550 S.3       1 <0>        -0.1200
     24 C20         3.6516   -2.9527   -0.3350 C.2       1 <0>         0.5378
     25 O2          4.4628   -3.8552   -0.4300 O.2       1 <0>        -0.4760
     26 N2          3.8709   -1.6251   -0.2636 N.am      1 <0>        -0.6196
     27 H2          4.7795   -1.2864   -0.2867 H         1 <0>         0.4154
     28 O3          4.0738    1.2930   -0.0932 O.3       1 <0>        -0.6869
     29 H3         -0.4280    1.4103    0.1369 H         1 <0>         0.1126
     30 H4          1.7830    2.4911    0.0929 H         1 <0>         0.1173
     31 H5         -1.5115   -0.5489   -1.9689 H         1 <0>         0.1348
     32 H6         -0.7088   -2.1375   -1.9509 H         1 <0>         0.1399
     33 H7         -2.6650   -3.0403   -0.9289 H         1 <0>         0.4231
     34 H8         -2.4129   -2.9231   -3.3555 H         1 <0>         0.1418
     35 H9         -3.7874   -0.3097   -2.7394 H         1 <0>         0.0858
     36 H10        -2.7033   -0.7308   -4.1023 H         1 <0>         0.0983
     37 H11        -5.3497   -0.4976   -4.5622 H         1 <0>         0.0860
     38 H12        -4.4615   -1.8767   -5.2901 H         1 <0>         0.0810
     39 H13        -6.1475   -1.8366   -2.7265 H         1 <0>         0.0921
     40 H14        -6.2181   -3.0047   -4.0831 H         1 <0>         0.0834
     41 H15        -4.3321   -4.1641   -3.3458 H         1 <0>         0.1095
     42 H16        -4.0111   -3.8257   -0.7694 H         1 <0>         0.0663
     43 H17        -4.8532   -1.4938   -0.7279 H         1 <0>         0.0486
     44 H18        -6.4400   -2.0565   -1.3055 H         1 <0>         0.0941
     45 H19        -5.0858   -2.9120    1.2928 H         1 <0>         0.0663
     46 H20        -6.4410   -1.7661    1.1571 H         1 <0>         0.0725
     47 H21        -7.2500   -4.0361    1.7413 H         1 <0>         0.0681
     48 H22        -7.8397   -3.5411    0.1364 H         1 <0>         0.0649
     49 H23        -5.4108   -5.3103    0.6725 H         1 <0>         0.0644
     50 H24        -6.9976   -5.8730    0.0949 H         1 <0>         0.0693
     51 H25        -6.7650   -4.4548   -1.9258 H         1 <0>         0.0726
     52 H26        -5.4098   -5.6007   -1.7901 H         1 <0>         0.0701
     53 H27        -2.0303    0.4555    0.2467 H         1 <0>         0.3825
     54 H28        -3.4081   -1.5698   -0.9455 H         1 <0>         0.4229
@<TRIPOS>BOND
     1    1    6 ar
     2    1    2 ar
     3    1   29 1
     4    2    3 ar
     5    2   30 1
     6    3    4 ar
     7    3   28 1
     8    4   26 1
     9    4    5 ar
    10    5    6 ar
    11    5   23 1
    12    6    7 1
    13    7    8 1
    14    7    9 1
    15    7   22 1
    16    9   10 1
    17    9   31 1
    18    9   32 1
    19   10   11 1
    20   10   33 1
    21   10   54 1
    22   11   15 1
    23   11   12 1
    24   11   34 1
    25   12   13 1
    26   12   35 1
    27   12   36 1
    28   13   14 1
    29   13   37 1
    30   13   38 1
    31   14   15 1
    32   14   39 1
    33   14   40 1
    34   15   16 1
    35   15   41 1
    36   16   21 1
    37   16   17 1
    38   16   42 1
    39   17   18 1
    40   17   43 1
    41   17   44 1
    42   18   19 1
    43   18   45 1
    44   18   46 1
    45   19   20 1
    46   19   47 1
    47   19   48 1
    48   20   21 1
    49   20   49 1
    50   20   50 1
    51   21   51 1
    52   21   52 1
    53   22   53 1
    54   23   24 1
    55   24   25 2
    56   24   26 am
    57   26   27 1
@<TRIPOS>MOLECULE
CHEMBL1221736__1
   54    57     0     0     0
SMALL
USER_CHARGES

@<TRIPOS>ATOM
      1 C1         -0.0167    1.3796    0.0096 C.ar      1 <0>        -0.0378
      2 C2          1.1829    2.0705    0.0019 C.ar      1 <0>        -0.2401
      3 C3          2.3903    1.4051   -0.0137 C.ar      1 <0>         0.3004
      4 C4          2.4377   -0.0032   -0.0217 C.ar      1 <0>        -0.0286
      5 C5          1.2054   -0.6693   -0.0130 C.ar      1 <0>        -0.0475
      6 C6          0.0021   -0.0041    0.0020 C.ar      1 <0>        -0.2329
      7 C7         -1.2907   -0.7785    0.0107 C.3       1 <0>         0.1630
      8 H1         -1.1640   -1.6905    0.5940 H         1 <0>         0.1145
      9 C8         -1.6778   -1.1407   -1.4245 C.3       1 <0>        -0.0487
     10 N1         -2.9380   -1.8956   -1.4160 N.4       1 <0>        -0.5040
     11 C9         -3.3097   -2.2434   -2.7940 C.3       1 <0>         0.0198
     12 C10        -3.6821   -0.9718   -3.5764 C.3       1 <0>        -0.1416
     13 C11        -5.1488   -1.1427   -4.0228 C.3       1 <0>        -0.1286
     14 C12        -5.3671   -2.6761   -4.0313 C.3       1 <0>        -0.1162
     15 C13        -4.5632   -3.1427   -2.7923 C.3       1 <0>        -0.1028
     16 C14        -4.1671   -4.6137   -2.9338 C.3       1 <0>        -0.0873
     17 C15        -5.4258   -5.4835   -2.9293 C.3       1 <0>        -0.1127
     18 C16        -5.0297   -6.9545   -3.0708 C.3       1 <0>        -0.1228
     19 C17        -4.1289   -7.3550   -1.9007 C.3       1 <0>        -0.1231
     20 C18        -2.8702   -6.4852   -1.9051 C.3       1 <0>        -0.1195
     21 C19        -3.2663   -5.0141   -1.7636 C.3       1 <0>        -0.1294
     22 O1         -2.3211    0.0211    0.5946 O.3       1 <0>        -0.5543
     23 S1          1.6714   -2.3835   -0.0263 S.3       1 <0>        -0.1195
     24 C20         3.4422   -2.1558   -0.0424 C.2       1 <0>         0.5377
     25 O2          4.3192   -2.9998   -0.0552 O.2       1 <0>        -0.4759
     26 N2          3.5628   -0.8137   -0.0368 N.am      1 <0>        -0.6197
     27 H2          4.4451   -0.4107   -0.0434 H         1 <0>         0.4154
     28 O3          3.5491    2.1163   -0.0218 O.3       1 <0>        -0.6865
     29 H3         -0.9553    1.9136    0.0259 H         1 <0>         0.1128
     30 H4          1.1728    3.1505    0.0078 H         1 <0>         0.1173
     31 H5         -1.8046   -0.2287   -2.0078 H         1 <0>         0.1369
     32 H6         -0.8919   -1.7507   -1.8699 H         1 <0>         0.1400
     33 H7         -2.8207   -2.7399   -0.8761 H         1 <0>         0.4224
     34 H8         -2.4829   -2.7563   -3.2853 H         1 <0>         0.1414
     35 H9         -3.5870   -0.0967   -2.9337 H         1 <0>         0.0860
     36 H10        -3.0362   -0.8673   -4.4482 H         1 <0>         0.1016
     37 H11        -5.8223   -0.6655   -3.3110 H         1 <0>         0.0770
     38 H12        -5.2940   -0.7312   -5.0216 H         1 <0>         0.0849
     39 H13        -6.4243   -2.9165   -3.9187 H         1 <0>         0.0860
     40 H14        -4.9641   -3.1186   -4.9423 H         1 <0>         0.0825
     41 H15        -5.1421   -2.9884   -1.8817 H         1 <0>         0.0957
     42 H16        -3.6299   -4.7568   -3.8713 H         1 <0>         0.0849
     43 H17        -5.9630   -5.3404   -1.9918 H         1 <0>         0.0650
     44 H18        -6.0675   -5.1982   -3.7630 H         1 <0>         0.0685
     45 H19        -5.9264   -7.5742   -3.0677 H         1 <0>         0.0663
     46 H20        -4.4925   -7.0976   -4.0084 H         1 <0>         0.0639
     47 H21        -4.6661   -7.2119   -0.9631 H         1 <0>         0.0630
     48 H22        -3.8467   -8.4030   -2.0015 H         1 <0>         0.0662
     49 H23        -2.2285   -6.7705   -1.0715 H         1 <0>         0.0692
     50 H24        -2.3330   -6.6283   -2.8427 H         1 <0>         0.0667
     51 H25        -2.3696   -4.3945   -1.7668 H         1 <0>         0.0524
     52 H26        -3.8036   -4.8711   -0.8261 H         1 <0>         0.0683
     53 H27        -2.4884    0.8504    0.1263 H         1 <0>         0.3831
     54 H28        -3.6655   -1.3310   -1.0037 H         1 <0>         0.4259
@<TRIPOS>BOND
     1    1    6 ar
     2    1    2 ar
     3    1   29 1
     4    2    3 ar
     5    2   30 1
     6    3    4 ar
     7    3   28 1
     8    4   26 1
     9    4    5 ar
    10    5    6 ar
    11    5   23 1
    12    6    7 1
    13    7    8 1
    14    7    9 1
    15    7   22 1
    16    9   10 1
    17    9   31 1
    18    9   32 1
    19   10   11 1
    20   10   33 1
    21   10   54 1
    22   11   15 1
    23   11   12 1
    24   11   34 1
    25   12   13 1
    26   12   35 1
    27   12   36 1
    28   13   14 1
    29   13   37 1
    30   13   38 1
    31   14   15 1
    32   14   39 1
    33   14   40 1
    34   15   16 1
    35   15   41 1
    36   16   21 1
    37   16   17 1
    38   16   42 1
    39   17   18 1
    40   17   43 1
    41   17   44 1
    42   18   19 1
    43   18   45 1
    44   18   46 1
    45   19   20 1
    46   19   47 1
    47   19   48 1
    48   20   21 1
    49   20   49 1
    50   20   50 1
    51   21   51 1
    52   21   52 1
    53   22   53 1
    54   23   24 1
    55   24   25 2
    56   24   26 am
    57   26   27 1
@<TRIPOS>MOLECULE
CHEMBL1221736__2
   54    57     0     0     0
SMALL
USER_CHARGES

@<TRIPOS>ATOM
      1 C1         -0.0167    1.3796    0.0096 C.ar      1 <0>        -0.0377
      2 C2          1.1829    2.0705    0.0019 C.ar      1 <0>        -0.2401
      3 C3          2.3903    1.4051   -0.0137 C.ar      1 <0>         0.3004
      4 C4          2.4377   -0.0032   -0.0217 C.ar      1 <0>        -0.0287
      5 C5          1.2054   -0.6693   -0.0130 C.ar      1 <0>        -0.0475
      6 C6          0.0021   -0.0041    0.0020 C.ar      1 <0>        -0.2331
      7 C7         -1.2907   -0.7785    0.0107 C.3       1 <0>         0.1634
      8 H1         -1.1640   -1.6905    0.5940 H         1 <0>         0.1150
      9 C8         -1.6778   -1.1407   -1.4245 C.3       1 <0>        -0.0490
     10 N1         -2.9380   -1.8956   -1.4160 N.4       1 <0>        -0.5010
     11 C9         -3.3097   -2.2434   -2.7940 C.3       1 <0>         0.0171
     12 C10        -2.3066   -3.2639   -3.3704 C.3       1 <0>        -0.1442
     13 C11        -2.9810   -4.6372   -3.1293 C.3       1 <0>        -0.1346
     14 C12        -4.4763   -4.3357   -3.3984 C.3       1 <0>        -0.1209
     15 C13        -4.6892   -2.9249   -2.8118 C.3       1 <0>        -0.1014
     16 C14        -5.6548   -2.1308   -3.6939 C.3       1 <0>        -0.0828
     17 C15        -5.8018   -0.7121   -3.1403 C.3       1 <0>        -0.1246
     18 C16        -6.7673    0.0820   -4.0224 C.3       1 <0>        -0.1204
     19 C17        -8.1338   -0.6063   -4.0309 C.3       1 <0>        -0.1232
     20 C18        -7.9867   -2.0250   -4.5845 C.3       1 <0>        -0.1225
     21 C19        -7.0212   -2.8191   -3.7024 C.3       1 <0>        -0.1137
     22 O1         -2.3211    0.0211    0.5946 O.3       1 <0>        -0.5545
     23 S1          1.6714   -2.3835   -0.0263 S.3       1 <0>        -0.1197
     24 C20         3.4422   -2.1558   -0.0424 C.2       1 <0>         0.5378
     25 O2          4.3192   -2.9998   -0.0552 O.2       1 <0>        -0.4758
     26 N2          3.5628   -0.8137   -0.0368 N.am      1 <0>        -0.6197
     27 H2          4.4451   -0.4107   -0.0434 H         1 <0>         0.4154
     28 O3          3.5491    2.1163   -0.0218 O.3       1 <0>        -0.6865
     29 H3         -0.9553    1.9136    0.0259 H         1 <0>         0.1128
     30 H4          1.1728    3.1505    0.0078 H         1 <0>         0.1173
     31 H5         -1.8046   -0.2287   -2.0078 H         1 <0>         0.1356
     32 H6         -0.8919   -1.7507   -1.8699 H         1 <0>         0.1414
     33 H7         -2.8207   -2.7399   -0.8761 H         1 <0>         0.4240
     34 H8         -3.3284   -1.3465   -3.4131 H         1 <0>         0.1417
     35 H9         -2.1592   -3.0933   -4.4368 H         1 <0>         0.1079
     36 H10        -1.3566   -3.2069   -2.8391 H         1 <0>         0.0924
     37 H11        -2.6045   -5.3811   -3.8315 H         1 <0>         0.0886
     38 H12        -2.8322   -4.9654   -2.1006 H         1 <0>         0.0749
     39 H13        -4.6792   -4.3382   -4.4693 H         1 <0>         0.0830
     40 H14        -5.1096   -5.0609   -2.8874 H         1 <0>         0.0828
     41 H15        -5.0829   -2.9976   -1.7980 H         1 <0>         0.0919
     42 H16        -5.2644   -2.0855   -4.7106 H         1 <0>         0.0831
     43 H17        -6.1922   -0.7574   -2.1236 H         1 <0>         0.0668
     44 H18        -4.8283   -0.2217   -3.1342 H         1 <0>         0.0570
     45 H19        -6.8721    1.0928   -3.6280 H         1 <0>         0.0666
     46 H20        -6.3770    0.1273   -5.0391 H         1 <0>         0.0646
     47 H21        -8.5241   -0.6516   -3.0142 H         1 <0>         0.0628
     48 H22        -8.8216   -0.0405   -4.6593 H         1 <0>         0.0650
     49 H23        -8.9602   -2.5154   -4.5906 H         1 <0>         0.0659
     50 H24        -7.5964   -1.9797   -5.6012 H         1 <0>         0.0635
     51 H25        -6.9164   -3.8298   -4.0968 H         1 <0>         0.0681
     52 H26        -7.4115   -2.8644   -2.6857 H         1 <0>         0.0647
     53 H27        -2.4884    0.8504    0.1263 H         1 <0>         0.3833
     54 H28        -3.6655   -1.3310   -1.0037 H         1 <0>         0.4269
@<TRIPOS>BOND
     1    1    6 ar
     2    1    2 ar
     3    1   29 1
     4    2    3 ar
     5    2   30 1
     6    3    4 ar
     7    3   28 1
     8    4   26 1
     9    4    5 ar
    10    5    6 ar
    11    5   23 1
    12    6    7 1
    13    7    8 1
    14    7    9 1
    15    7   22 1
    16    9   10 1
    17    9   31 1
    18    9   32 1
    19   10   11 1
    20   10   33 1
    21   10   54 1
    22   11   15 1
    23   11   12 1
    24   11   34 1
    25   12   13 1
    26   12   35 1
    27   12   36 1
    28   13   14 1
    29   13   37 1
    30   13   38 1
    31   14   15 1
    32   14   39 1
    33   14   40 1
    34   15   16 1
    35   15   41 1
    36   16   21 1
    37   16   17 1
    38   16   42 1
    39   17   18 1
    40   17   43 1
    41   17   44 1
    42   18   19 1
    43   18   45 1
    44   18   46 1
    45   19   20 1
    46   19   47 1
    47   19   48 1
    48   20   21 1
    49   20   49 1
    50   20   50 1
    51   21   51 1
    52   21   52 1
    53   22   53 1
    54   23   24 1
    55   24   25 2
    56   24   26 am
    57   26   27 1
@<TRIPOS>MOLECULE
CHEMBL1221736__3
   54    57     0     0     0
SMALL
USER_CHARGES

@<TRIPOS>ATOM
      1 C1         -2.5199    3.1866   -0.5537 C.ar      1 <0>        -0.0378
      2 C2         -1.7715    4.3464   -0.6608 C.ar      1 <0>        -0.2401
      3 C3         -0.3937    4.3130   -0.6266 C.ar      1 <0>         0.3004
      4 C4          0.2948    3.0922   -0.4805 C.ar      1 <0>        -0.0287
      5 C5         -0.4940    1.9395   -0.3745 C.ar      1 <0>        -0.0473
      6 C6         -1.8681    1.9745   -0.4093 C.ar      1 <0>        -0.2322
      7 C7         -2.6609    0.6984   -0.2903 C.3       1 <0>         0.1631
      8 H1         -2.1495    0.0148    0.3873 H         1 <0>         0.1134
      9 C8         -2.7906    0.0480   -1.6691 C.3       1 <0>        -0.0503
     10 N1         -3.5634   -1.1959   -1.5530 N.4       1 <0>        -0.5086
     11 C9         -3.6878   -1.8204   -2.8768 C.3       1 <0>         0.0236
     12 C10        -2.3166   -2.3539   -3.3404 C.3       1 <0>        -0.1431
     13 C11        -2.6524   -3.6730   -4.0795 C.3       1 <0>        -0.1218
     14 C12        -3.7971   -4.2646   -3.2199 C.3       1 <0>        -0.1370
     15 C13        -4.6291   -3.0352   -2.8002 C.3       1 <0>        -0.1040
     16 C14        -5.1408   -3.2123   -1.3692 C.3       1 <0>        -0.1051
     17 C15        -6.3831   -4.1052   -1.3786 C.3       1 <0>        -0.1088
     18 C16        -6.8948   -4.2823    0.0524 C.3       1 <0>        -0.1244
     19 C17        -5.8052   -4.9335    0.9066 C.3       1 <0>        -0.1228
     20 C18        -4.5628   -4.0406    0.9161 C.3       1 <0>        -0.1267
     21 C19        -4.0512   -3.8635   -0.5149 C.3       1 <0>        -0.1297
     22 O1         -3.9622    0.9921    0.2221 O.3       1 <0>        -0.5546
     23 S1          0.7068    0.6408   -0.2080 S.3       1 <0>        -0.1203
     24 C20         2.1751    1.6538   -0.2836 C.2       1 <0>         0.5379
     25 O2          3.3414    1.3113   -0.2206 O.2       1 <0>        -0.4760
     26 N2          1.6662    2.8931   -0.4281 N.am      1 <0>        -0.6195
     27 H2          2.2649    3.6533   -0.4962 H         1 <0>         0.4154
     28 O3          0.3092    5.4718   -0.7355 O.3       1 <0>        -0.6868
     29 H3         -3.5988    3.2278   -0.5780 H         1 <0>         0.1129
     30 H4         -2.2762    5.2945   -0.7736 H         1 <0>         0.1173
     31 H5         -3.3020    0.7316   -2.3467 H         1 <0>         0.1354
     32 H6         -1.7980   -0.1760   -2.0599 H         1 <0>         0.1396
     33 H7         -3.0899   -1.8287   -0.9258 H         1 <0>         0.4202
     34 H8         -4.0703   -1.0965   -3.5964 H         1 <0>         0.1410
     35 H9         -1.8418   -1.6462   -4.0199 H         1 <0>         0.0987
     36 H10        -1.6738   -2.5504   -2.4824 H         1 <0>         0.0877
     37 H11        -2.9961   -3.4708   -5.0939 H         1 <0>         0.0806
     38 H12        -1.7911   -4.3410   -4.0882 H         1 <0>         0.0865
     39 H13        -4.4027   -4.9512   -3.8114 H         1 <0>         0.0833
     40 H14        -3.3934   -4.7696   -2.3423 H         1 <0>         0.0921
     41 H15        -5.4680   -2.9012   -3.4832 H         1 <0>         0.1090
     42 H16        -5.3964   -2.2385   -0.9516 H         1 <0>         0.0679
     43 H17        -7.1594   -3.6413   -1.9872 H         1 <0>         0.0697
     44 H18        -6.1275   -5.0790   -1.7962 H         1 <0>         0.0725
     45 H19        -7.1504   -3.3085    0.4700 H         1 <0>         0.0645
     46 H20        -7.7799   -4.9185    0.0457 H         1 <0>         0.0691
     47 H21        -6.1697   -5.0597    1.9261 H         1 <0>         0.0682
     48 H22        -5.5496   -5.9073    0.4890 H         1 <0>         0.0651
     49 H23        -4.8184   -3.0668    1.3337 H         1 <0>         0.0667
     50 H24        -3.7866   -4.5045    1.5246 H         1 <0>         0.0728
     51 H25        -3.7956   -4.8373   -0.9326 H         1 <0>         0.0952
     52 H26        -3.1661   -3.2273   -0.5082 H         1 <0>         0.0470
     53 H27        -4.4756    1.5965   -0.3314 H         1 <0>         0.3832
     54 H28        -4.4822   -0.9885   -1.1912 H         1 <0>         0.4253
@<TRIPOS>BOND
     1    1    6 ar
     2    1    2 ar
     3    1   29 1
     4    2    3 ar
     5    2   30 1
     6    3    4 ar
     7    3   28 1
     8    4   26 1
     9    4    5 ar
    10    5    6 ar
    11    5   23 1
    12    6    7 1
    13    7    8 1
    14    7    9 1
    15    7   22 1
    16    9   10 1
    17    9   31 1
    18    9   32 1
    19   10   11 1
    20   10   33 1
    21   10   54 1
    22   11   15 1
    23   11   12 1
    24   11   34 1
    25   12   13 1
    26   12   35 1
    27   12   36 1
    28   13   14 1
    29   13   37 1
    30   13   38 1
    31   14   15 1
    32   14   39 1
    33   14   40 1
    34   15   16 1
    35   15   41 1
    36   16   21 1
    37   16   17 1
    38   16   42 1
    39   17   18 1
    40   17   43 1
    41   17   44 1
    42   18   19 1
    43   18   45 1
    44   18   46 1
    45   19   20 1
    46   19   47 1
    47   19   48 1
    48   20   21 1
    49   20   49 1
    50   20   50 1
    51   21   51 1
    52   21   52 1
    53   22   53 1
    54   23   24 1
    55   24   25 2
    56   24   26 am
    57   26   27 1
@<TRIPOS>MOLECULE
CHEMBL1089725
   56    59     0     0     0
SMALL
USER_CHARGES

@<TRIPOS>ATOM
      1 C1         10.0124   -6.1796    3.9738 C.ar      1 <0>        -0.1180
      2 C2          9.3320   -7.3662    4.2043 C.ar      1 <0>        -0.0860
      3 C3          8.0948   -7.5849    3.6356 C.ar      1 <0>        -0.0947
      4 C4          7.5246   -6.6130    2.8275 C.ar      1 <0>         0.0163
      5 C5          8.2094   -5.4112    2.5922 C.ar      1 <0>         0.0189
      6 C6          9.4611   -5.2038    3.1740 C.ar      1 <0>        -0.0583
      7 N1          7.4149   -4.6665    1.7764 N.2       1 <0>        -0.4592
      8 C7          6.3314   -5.3364    1.5219 C.2       1 <0>         0.2551
      9 O1          6.3623   -6.5254    2.1441 O.3       1 <0>        -0.2085
     10 C8          5.2014   -4.8485    0.6524 C.3       1 <0>        -0.0486
     11 C9          5.4497   -5.2646   -0.7746 C.2       1 <0>         0.5241
     12 O2          6.4463   -5.8953   -1.0576 O.2       1 <0>        -0.5016
     13 N2          4.5645   -4.9359   -1.7362 N.am      1 <0>        -0.6736
     14 C10         4.8411   -5.2371   -3.0744 C.ar      1 <0>         0.1643
     15 C11         4.4341   -4.3712   -4.0810 C.ar      1 <0>        -0.1391
     16 C12         4.7086   -4.6714   -5.4008 C.ar      1 <0>        -0.0879
     17 C13         5.3880   -5.8326   -5.7205 C.ar      1 <0>        -0.1251
     18 C14         5.7943   -6.6970   -4.7205 C.ar      1 <0>        -0.0878
     19 C15         5.5282   -6.3996   -3.3983 C.ar      1 <0>        -0.1175
     20 C16         5.6859   -6.1570   -7.1617 C.3       1 <0>        -0.0973
     21 C17         7.0406   -5.5607   -7.5492 C.3       1 <0>        -0.0080
     22 N3          7.3309   -5.8769   -8.9540 N.4       1 <0>        -0.5052
     23 C18         8.6316   -5.3044   -9.3261 C.3       1 <0>        -0.0429
     24 C19         8.9341   -5.6337  -10.7893 C.3       1 <0>         0.1418
     25 H1          8.1560   -5.2114  -11.4251 H         1 <0>         0.1339
     26 C20        10.2684   -5.0464  -11.1709 C.ar      1 <0>        -0.2005
     27 C21        10.3399   -3.8018  -11.7781 C.ar      1 <0>        -0.0549
     28 C22        11.5888   -3.3011  -12.1117 C.ar      1 <0>        -0.1642
     29 C23        12.7134   -4.0538  -11.8300 C.ar      1 <0>         0.1225
     30 N4         12.6075   -5.2341  -11.2519 N.ar      1 <0>        -0.4748
     31 C24        11.4365   -5.7389  -10.9151 C.ar      1 <0>         0.1174
     32 O3          8.9714   -7.0520  -10.9605 O.3       1 <0>        -0.5462
     33 H2         10.9789   -6.0183    4.4281 H         1 <0>         0.1413
     34 H3          9.7745   -8.1244    4.8334 H         1 <0>         0.1446
     35 H4          7.5712   -8.5115    3.8190 H         1 <0>         0.1378
     36 H5          9.9952   -4.2819    2.9973 H         1 <0>         0.1378
     37 H6          4.2631   -5.2815    0.9991 H         1 <0>         0.1368
     38 H7          5.1427   -3.7615    0.7089 H         1 <0>         0.1478
     39 H8          3.7356   -4.4905   -1.5006 H         1 <0>         0.4194
     40 H9          3.9031   -3.4643   -3.8320 H         1 <0>         0.1344
     41 H10         4.3920   -3.9986   -6.1841 H         1 <0>         0.1296
     42 H11         6.3244   -7.6033   -4.9734 H         1 <0>         0.1283
     43 H12         5.8503   -7.0726   -2.6174 H         1 <0>         0.1446
     44 H13         5.7143   -7.2388   -7.2923 H         1 <0>         0.0965
     45 H14         4.9078   -5.7346   -7.7975 H         1 <0>         0.0964
     46 H15         7.0121   -4.4789   -7.4186 H         1 <0>         0.1337
     47 H16         7.8187   -5.9831   -6.9134 H         1 <0>         0.1335
     48 H17         7.3573   -6.8783   -9.0749 H         1 <0>         0.4326
     49 H18         8.6032   -4.2226   -9.1955 H         1 <0>         0.1446
     50 H19         9.4098   -5.7268   -8.6903 H         1 <0>         0.1377
     51 H20         9.4438   -3.2361  -11.9865 H         1 <0>         0.1411
     52 H21        11.6819   -2.3353  -12.5860 H         1 <0>         0.1472
     53 H22        13.6901   -3.6709  -12.0867 H         1 <0>         0.1672
     54 H23        11.3897   -6.7067  -10.4382 H         1 <0>         0.1530
     55 H24         9.6424   -7.4954  -10.4236 H         1 <0>         0.3901
     56 H25         6.6107   -5.4859   -9.5426 H         1 <0>         0.4294
@<TRIPOS>BOND
     1    1    6 ar
     2    1    2 ar
     3    1   33 1
     4    2    3 ar
     5    2   34 1
     6    3    4 ar
     7    3   35 1
     8    4    9 1
     9    4    5 ar
    10    5    6 ar
    11    5    7 1
    12    6   36 1
    13    7    8 2
    14    8    9 1
    15    8   10 1
    16   10   11 1
    17   10   37 1
    18   10   38 1
    19   11   12 2
    20   11   13 am
    21   13   14 1
    22   13   39 1
    23   14   19 ar
    24   14   15 ar
    25   15   16 ar
    26   15   40 1
    27   16   17 ar
    28   16   41 1
    29   17   18 ar
    30   17   20 1
    31   18   19 ar
    32   18   42 1
    33   19   43 1
    34   20   21 1
    35   20   44 1
    36   20   45 1
    37   21   22 1
    38   21   46 1
    39   21   47 1
    40   22   23 1
    41   22   48 1
    42   22   56 1
    43   23   24 1
    44   23   49 1
    45   23   50 1
    46   24   25 1
    47   24   26 1
    48   24   32 1
    49   26   31 ar
    50   26   27 ar
    51   27   28 ar
    52   27   51 1
    53   28   29 ar
    54   28   52 1
    55   29   30 ar
    56   29   53 1
    57   30   31 ar
    58   31   54 1
    59   32   55 1
@<TRIPOS>MOLECULE
CHEMBL387852
   50    51     0     0     0
SMALL
USER_CHARGES

@<TRIPOS>ATOM
      1 C1         -0.0187    1.5258    0.0104 C.3       1 <0>        -0.1539
      2 C2          0.0021   -0.0041    0.0020 C.3       1 <0>         0.0616
      3 O1         -1.3386   -0.4987    0.0122 O.3       1 <0>        -0.3480
      4 C3         -1.4964   -1.8317    0.0065 C.2       1 <0>         0.4604
      5 O2         -0.5283   -2.5546   -0.0066 O.2       1 <0>        -0.4769
      6 C4         -2.8809   -2.4266    0.0165 C.3       1 <0>         0.0679
      7 O3         -2.7868   -3.8524    0.0080 O.3       1 <0>        -0.2881
      8 C5         -3.9544   -4.5479    0.0154 C.ar      1 <0>         0.1495
      9 C6         -5.1658   -3.8718    0.0248 C.ar      1 <0>        -0.2021
     10 C7         -6.3512   -4.5810    0.0318 C.ar      1 <0>        -0.0972
     11 C8         -6.3311   -5.9635    0.0300 C.ar      1 <0>        -0.1678
     12 C9         -5.1251   -6.6397    0.0211 C.ar      1 <0>        -0.0603
     13 C10        -3.9369   -5.9351    0.0078 C.ar      1 <0>        -0.1341
     14 C11        -7.6258   -6.7347    0.0382 C.3       1 <0>        -0.0933
     15 C12        -8.0741   -6.9939   -1.4015 C.3       1 <0>         0.0293
     16 H1         -7.2738   -7.4941   -1.9468 H         1 <0>         0.1430
     17 C13        -9.3198   -7.8822   -1.3956 C.3       1 <0>        -0.1860
     18 N1         -8.3872   -5.7158   -2.0545 N.4       1 <0>        -0.5033
     19 C14        -8.7020   -5.9531   -3.4696 C.3       1 <0>        -0.0507
     20 C15        -9.0281   -4.6219   -4.1497 C.3       1 <0>         0.1732
     21 H2         -8.1685   -3.9558   -4.0755 H         1 <0>         0.1577
     22 C16        -9.3510   -4.8654   -5.6015 C.2       1 <0>         0.0142
     23 C17        -8.4860   -4.7787   -6.6297 C.2       1 <0>        -0.2178
     24 C18        -9.1829   -5.0809   -7.8146 C.2       1 <0>         0.0882
     25 N2        -10.4216   -5.3387   -7.4999 N.2       1 <0>        -0.2486
     26 O4        -10.5495   -5.2122   -6.0952 O.3       1 <0>        -0.0533
     27 Br1        -8.4508   -5.1077   -9.5579 Br        1 <0>         0.0898
     28 O5        -10.1533   -4.0211   -3.5057 O.3       1 <0>        -0.5361
     29 H3          1.0039    1.9031    0.0027 H         1 <0>         0.0861
     30 H4         -0.5459    1.8868   -0.8726 H         1 <0>         0.0685
     31 H5         -0.5289    1.8773    0.9072 H         1 <0>         0.0691
     32 H6          0.5123   -0.3556   -0.8948 H         1 <0>         0.0730
     33 H7          0.5293   -0.3651    0.8851 H         1 <0>         0.0734
     34 H8         -3.4091   -2.1027    0.9134 H         1 <0>         0.1120
     35 H9         -3.4261   -2.0931   -0.8665 H         1 <0>         0.1103
     36 H10        -5.1820   -2.7919    0.0270 H         1 <0>         0.1394
     37 H11        -7.2945   -4.0552    0.0391 H         1 <0>         0.1277
     38 H12        -5.1120   -7.7196    0.0200 H         1 <0>         0.1392
     39 H13        -2.9952   -6.4637   -0.0036 H         1 <0>         0.1436
     40 H14        -7.4789   -7.6859    0.5498 H         1 <0>         0.1230
     41 H15        -8.3897   -6.1567    0.5581 H         1 <0>         0.0987
     42 H16        -9.6392   -8.0669   -2.4213 H         1 <0>         0.0820
     43 H17        -9.0875   -8.8306   -0.9111 H         1 <0>         0.1106
     44 H18       -10.1202   -7.3821   -0.8503 H         1 <0>         0.0856
     45 H19        -9.1818   -5.2916   -1.5998 H         1 <0>         0.4306
     46 H20        -7.8437   -6.4114   -3.9609 H         1 <0>         0.1524
     47 H21        -9.5616   -6.6192   -3.5439 H         1 <0>         0.1478
     48 H22        -7.4395   -4.5216   -6.5578 H         1 <0>         0.1795
     49 H23       -10.9560   -4.5596   -3.5331 H         1 <0>         0.4020
     50 H24        -7.5915   -5.0992   -1.9858 H         1 <0>         0.4279
@<TRIPOS>BOND
     1    1    2 1
     2    1   29 1
     3    1   30 1
     4    1   31 1
     5    2    3 1
     6    2   32 1
     7    2   33 1
     8    3    4 1
     9    4    5 2
    10    4    6 1
    11    6    7 1
    12    6   34 1
    13    6   35 1
    14    7    8 1
    15    8   13 ar
    16    8    9 ar
    17    9   10 ar
    18    9   36 1
    19   10   11 ar
    20   10   37 1
    21   11   12 ar
    22   11   14 1
    23   12   13 ar
    24   12   38 1
    25   13   39 1
    26   14   15 1
    27   14   40 1
    28   14   41 1
    29   15   16 1
    30   15   17 1
    31   15   18 1
    32   17   42 1
    33   17   43 1
    34   17   44 1
    35   18   19 1
    36   18   45 1
    37   18   50 1
    38   19   20 1
    39   19   46 1
    40   19   47 1
    41   20   21 1
    42   20   22 1
    43   20   28 1
    44   22   26 1
    45   22   23 2
    46   23   24 1
    47   23   48 1
    48   24   25 2
    49   24   27 1
    50   25   26 1
    51   28   49 1
@<TRIPOS>MOLECULE
CHEMBL290024
   52    55     0     0     0
SMALL
USER_CHARGES

@<TRIPOS>ATOM
      1 C1         -0.5056    0.6840   -0.5231 C.ar      1 <0>        -0.1232
      2 C2          0.6696    1.4010   -0.6581 C.ar      1 <0>        -0.1155
      3 C3          1.8830    0.7439   -0.6819 C.ar      1 <0>        -0.1109
      4 C4          1.9228   -0.6448   -0.5697 C.ar      1 <0>        -0.0340
      5 C5          0.7354   -1.3620   -0.4339 C.ar      1 <0>        -0.1208
      6 C6         -0.4722   -0.6943   -0.4113 C.ar      1 <0>        -0.1128
      7 C7          3.2235   -1.3566   -0.5952 C.ar      1 <0>        -0.1274
      8 C8          4.1486   -1.0880   -1.6011 C.ar      1 <0>        -0.0578
      9 C9          5.3580   -1.7526   -1.6204 C.ar      1 <0>        -0.1771
     10 C10         5.6567   -2.6867   -0.6436 C.ar      1 <0>        -0.0675
     11 C11         4.7477   -2.9620    0.3594 C.ar      1 <0>        -0.1996
     12 C12         3.5299   -2.2974    0.3950 C.ar      1 <0>         0.2306
     13 N1          2.6128   -2.5699    1.4097 N.pl3     1 <0>        -0.7395
     14 C13         2.9366   -3.5551    2.4445 C.3       1 <0>         0.0970
     15 C14         1.7699   -3.6635    3.4284 C.3       1 <0>         0.1031
     16 C15         2.1563   -4.5979    4.5766 C.3       1 <0>         0.0456
     17 O1          1.1136   -4.6084    5.5537 O.3       1 <0>        -0.2177
     18 N2          1.3735   -5.4472    6.6645 N.2       1 <0>        -0.3428
     19 C16         0.5153   -5.5428    7.6087 C.2       1 <0>         0.2012
     20 C17         0.7313   -6.5306    8.7261 C.3       1 <0>        -0.1109
     21 C18         1.9507   -6.3231    9.6266 C.3       1 <0>        -0.1578
     22 C19         1.9330   -7.4710    8.6152 C.3       1 <0>        -0.1612
     23 C20        -0.7115   -4.6676    7.6033 C.3       1 <0>        -0.1569
     24 C21        -0.5141   -3.1762    7.3247 C.3       1 <0>        -0.1521
     25 C22        -0.8593   -3.6514    8.7375 C.3       1 <0>        -0.1635
     26 O2          0.6244   -4.1870    2.7532 O.3       1 <0>        -0.5467
     27 H1         -1.4526    1.2027   -0.5004 H         1 <0>         0.1219
     28 H2          0.6375    2.4770   -0.7453 H         1 <0>         0.1233
     29 H3          2.7999    1.3047   -0.7877 H         1 <0>         0.1230
     30 H4          0.7603   -2.4382   -0.3469 H         1 <0>         0.1238
     31 H5         -1.3929   -1.2490   -0.3061 H         1 <0>         0.1235
     32 H6          3.9196   -0.3605   -2.3658 H         1 <0>         0.1224
     33 H7          6.0743   -1.5432   -2.4011 H         1 <0>         0.1207
     34 H8          6.6049   -3.2031   -0.6660 H         1 <0>         0.1214
     35 H9          4.9864   -3.6922    1.1185 H         1 <0>         0.1208
     36 H10         1.7605   -2.1071    1.4303 H         1 <0>         0.4071
     37 H11         3.1116   -4.5256    1.9801 H         1 <0>         0.0686
     38 H12         3.8336   -3.2405    2.9778 H         1 <0>         0.0727
     39 H13         1.5372   -2.6758    3.8263 H         1 <0>         0.1119
     40 H14         2.3026   -5.6067    4.1906 H         1 <0>         0.0623
     41 H15         3.0806   -4.2468    5.0354 H         1 <0>         0.0660
     42 H16        -0.1745   -6.9237    9.1877 H         1 <0>         0.1318
     43 H17         2.5967   -5.4721    9.4108 H         1 <0>         0.0959
     44 H18         1.8473   -6.5796   10.6809 H         1 <0>         0.1047
     45 H19         1.8180   -8.4827    9.0042 H         1 <0>         0.1022
     46 H20         2.5674   -7.3752    7.7340 H         1 <0>         0.1047
     47 H21        -1.6206   -5.1347    7.2244 H         1 <0>         0.1217
     48 H22         0.5031   -2.8280    7.1453 H         1 <0>         0.0933
     49 H23        -1.2934   -2.6618    6.7623 H         1 <0>         0.0992
     50 H24        -1.8657   -3.4496    9.1045 H         1 <0>         0.1010
     51 H25        -0.0692   -3.6158    9.4875 H         1 <0>         0.0970
     52 H26         0.7595   -5.0657    2.3728 H         1 <0>         0.3771
@<TRIPOS>BOND
     1    1    6 ar
     2    1    2 ar
     3    1   27 1
     4    2    3 ar
     5    2   28 1
     6    3    4 ar
     7    3   29 1
     8    4    5 ar
     9    4    7 1
    10    5    6 ar
    11    5   30 1
    12    6   31 1
    13    7   12 ar
    14    7    8 ar
    15    8    9 ar
    16    8   32 1
    17    9   10 ar
    18    9   33 1
    19   10   11 ar
    20   10   34 1
    21   11   12 ar
    22   11   35 1
    23   12   13 1
    24   13   14 1
    25   13   36 1
    26   14   15 1
    27   14   37 1
    28   14   38 1
    29   15   16 1
    30   15   26 1
    31   15   39 1
    32   16   17 1
    33   16   40 1
    34   16   41 1
    35   17   18 1
    36   18   19 2
    37   19   20 1
    38   19   23 1
    39   20   22 1
    40   20   21 1
    41   20   42 1
    42   21   22 1
    43   21   43 1
    44   21   44 1
    45   22   45 1
    46   22   46 1
    47   23   25 1
    48   23   24 1
    49   23   47 1
    50   24   25 1
    51   24   48 1
    52   24   49 1
    53   25   50 1
    54   25   51 1
    55   26   52 1
@<TRIPOS>MOLECULE
CHEMBL290024__1
   52    55     0     0     0
SMALL
USER_CHARGES

@<TRIPOS>ATOM
      1 C1         -0.4044    0.6917   -0.6161 C.ar      1 <0>        -0.1225
      2 C2          0.7748    1.4029   -0.7461 C.ar      1 <0>        -0.1143
      3 C3          1.9855    0.7405   -0.7587 C.ar      1 <0>        -0.1101
      4 C4          2.0184   -0.6479   -0.6403 C.ar      1 <0>        -0.0316
      5 C5          0.8270   -1.3593   -0.5096 C.ar      1 <0>        -0.1232
      6 C6         -0.3778   -0.6863   -0.4982 C.ar      1 <0>        -0.1131
      7 C7          3.3161   -1.3654   -0.6537 C.ar      1 <0>        -0.1278
      8 C8          4.2493   -1.1053   -1.6544 C.ar      1 <0>        -0.0578
      9 C9          5.4559   -1.7752   -1.6625 C.ar      1 <0>        -0.1771
     10 C10         5.7437   -2.7064   -0.6796 C.ar      1 <0>        -0.0674
     11 C11         4.8267   -2.9734    0.3182 C.ar      1 <0>        -0.1997
     12 C12         3.6115   -2.3033    0.3425 C.ar      1 <0>         0.2308
     13 N1          2.6863   -2.5674    1.3521 N.pl3     1 <0>        -0.7390
     14 C13         2.9986   -3.5496    2.3933 C.3       1 <0>         0.0964
     15 C14         1.8247   -3.6486    3.3695 C.3       1 <0>         0.1030
     16 C15         2.1509   -4.6744    4.4569 C.3       1 <0>         0.0456
     17 O1          1.0115   -4.8526    5.3008 O.3       1 <0>        -0.2178
     18 N2          1.2095   -5.7872    6.3459 N.2       1 <0>        -0.3429
     19 C16         0.2628   -6.0351    7.1703 C.2       1 <0>         0.2013
     20 C17         0.4273   -7.1211    8.2022 C.3       1 <0>        -0.1109
     21 C18         1.5231   -6.9361    9.2539 C.3       1 <0>        -0.1577
     22 C19         1.6994   -7.9689    8.1389 C.3       1 <0>        -0.1614
     23 C20        -1.0166   -5.2412    7.1094 C.3       1 <0>        -0.1592
     24 C21        -0.8994   -3.7194    7.0041 C.3       1 <0>        -0.1482
     25 C22        -1.3608   -4.3624    8.3136 C.3       1 <0>        -0.1643
     26 O2          1.5967   -2.3727    3.9713 O.3       1 <0>        -0.5463
     27 H1         -1.3493    1.2146   -0.6022 H         1 <0>         0.1221
     28 H2          0.7481    2.4787   -0.8382 H         1 <0>         0.1235
     29 H3          2.9056    1.2968   -0.8606 H         1 <0>         0.1231
     30 H4          0.8466   -2.4352   -0.4178 H         1 <0>         0.1213
     31 H5         -1.3016   -1.2365   -0.3970 H         1 <0>         0.1229
     32 H6          4.0287   -0.3800   -2.4237 H         1 <0>         0.1224
     33 H7          6.1784   -1.5723   -2.4391 H         1 <0>         0.1207
     34 H8          6.6898   -3.2270   -0.6932 H         1 <0>         0.1214
     35 H9          5.0569   -3.7013    1.0821 H         1 <0>         0.1209
     36 H10         1.8360   -2.1009    1.3648 H         1 <0>         0.4078
     37 H11         3.1726   -4.5228    1.9343 H         1 <0>         0.0740
     38 H12         3.8933   -3.2365    2.9314 H         1 <0>         0.0669
     39 H13         0.9300   -3.9617    2.8314 H         1 <0>         0.1126
     40 H14         2.4116   -5.6255    3.9927 H         1 <0>         0.0674
     41 H15         2.9917   -4.3180    5.0521 H         1 <0>         0.0607
     42 H16        -0.4922   -7.6159    8.5147 H         1 <0>         0.1317
     43 H17         2.1250   -6.0290    9.1994 H         1 <0>         0.0958
     44 H18         1.3245   -7.3091   10.2586 H         1 <0>         0.1046
     45 H19         1.6167   -9.0214    8.4101 H         1 <0>         0.1021
     46 H20         2.4173   -7.7412    7.3509 H         1 <0>         0.1047
     47 H21        -1.8425   -5.7202    6.5835 H         1 <0>         0.1207
     48 H22         0.1032   -3.2924    6.9790 H         1 <0>         0.0956
     49 H23        -1.6482   -3.1968    6.4088 H         1 <0>         0.0986
     50 H24        -2.4131   -4.2629    8.5797 H         1 <0>         0.1004
     51 H25        -0.6617   -4.3584    9.1499 H         1 <0>         0.0966
     52 H26         2.3529   -2.0313    4.4680 H         1 <0>         0.3767
@<TRIPOS>BOND
     1    1    6 ar
     2    1    2 ar
     3    1   27 1
     4    2    3 ar
     5    2   28 1
     6    3    4 ar
     7    3   29 1
     8    4    5 ar
     9    4    7 1
    10    5    6 ar
    11    5   30 1
    12    6   31 1
    13    7   12 ar
    14    7    8 ar
    15    8    9 ar
    16    8   32 1
    17    9   10 ar
    18    9   33 1
    19   10   11 ar
    20   10   34 1
    21   11   12 ar
    22   11   35 1
    23   12   13 1
    24   13   14 1
    25   13   36 1
    26   14   15 1
    27   14   37 1
    28   14   38 1
    29   15   16 1
    30   15   26 1
    31   15   39 1
    32   16   17 1
    33   16   40 1
    34   16   41 1
    35   17   18 1
    36   18   19 2
    37   19   20 1
    38   19   23 1
    39   20   22 1
    40   20   21 1
    41   20   42 1
    42   21   22 1
    43   21   43 1
    44   21   44 1
    45   22   45 1
    46   22   46 1
    47   23   25 1
    48   23   24 1
    49   23   47 1
    50   24   25 1
    51   24   48 1
    52   24   49 1
    53   25   50 1
    54   25   51 1
    55   26   52 1
@<TRIPOS>MOLECULE
CHEMBL434
   33    33     0     0     0
SMALL
USER_CHARGES

@<TRIPOS>ATOM
      1 C1         -0.0187    1.5258    0.0104 C.3       1 <0>        -0.1861
      2 C2          0.0021   -0.0041    0.0020 C.3       1 <0>         0.0236
      3 C3          0.7421   -0.5109    1.2415 C.3       1 <0>        -0.1852
      4 N1         -1.3761   -0.5125    0.0124 N.4       1 <0>        -0.5047
      5 C4         -2.0500   -0.1262   -1.2343 C.3       1 <0>        -0.0461
      6 C5         -3.4854   -0.6557   -1.2235 C.3       1 <0>         0.1376
      7 C6         -4.1376   -0.3665   -2.5509 C.ar      1 <0>        -0.1366
      8 C7         -4.6356    0.8960   -2.8142 C.ar      1 <0>        -0.0991
      9 C8         -5.2348    1.1663   -4.0303 C.ar      1 <0>        -0.1234
     10 C9         -5.3368    0.1709   -4.9888 C.ar      1 <0>         0.1047
     11 C10        -4.8351   -1.0998   -4.7240 C.ar      1 <0>         0.0901
     12 C11        -4.2314   -1.3627   -3.5048 C.ar      1 <0>        -0.1130
     13 O1         -4.9328   -2.0800   -5.6616 O.3       1 <0>        -0.4824
     14 O2         -5.9263    0.4350   -6.1856 O.3       1 <0>        -0.4834
     15 O3         -4.2221   -0.0137   -0.1809 O.3       1 <0>        -0.5453
     16 H1          1.0039    1.9031    0.0027 H         1 <0>         0.1072
     17 H2         -0.5459    1.8868   -0.8726 H         1 <0>         0.0796
     18 H3         -0.5289    1.8773    0.9072 H         1 <0>         0.0831
     19 H4          0.5123   -0.3556   -0.8948 H         1 <0>         0.1387
     20 H5          0.2319   -0.1594    2.1383 H         1 <0>         0.0826
     21 H6          0.7568   -1.6008    1.2356 H         1 <0>         0.0826
     22 H7          1.7647   -0.1336    1.2338 H         1 <0>         0.1076
     23 H8         -1.3629   -1.5185    0.0898 H         1 <0>         0.4292
     24 H9         -2.0643    0.9605   -1.3179 H         1 <0>         0.1385
     25 H10        -1.5132   -0.5489   -2.0836 H         1 <0>         0.1439
     26 H11        -3.4743   -1.7319   -1.0509 H         1 <0>         0.1318
     27 H12        -4.5568    1.6727   -2.0679 H         1 <0>         0.1303
     28 H13        -5.6237    2.1532   -4.2332 H         1 <0>         0.1435
     29 H14        -3.8378   -2.3470   -3.2982 H         1 <0>         0.1390
     30 H15        -4.1784   -2.1238   -6.2650 H         1 <0>         0.3947
     31 H16        -5.3143    0.7514   -6.8642 H         1 <0>         0.3972
     32 H17        -4.2734    0.9478   -0.2701 H         1 <0>         0.3889
     33 H18        -1.8730   -0.1212    0.7986 H         1 <0>         0.4306
@<TRIPOS>BOND
     1    1    2 1
     2    1   16 1
     3    1   17 1
     4    1   18 1
     5    2    3 1
     6    2    4 1
     7    2   19 1
     8    3   20 1
     9    3   21 1
    10    3   22 1
    11    4    5 1
    12    4   23 1
    13    4   33 1
    14    5    6 1
    15    5   24 1
    16    5   25 1
    17    6    7 1
    18    6   15 1
    19    6   26 1
    20    7   12 ar
    21    7    8 ar
    22    8    9 ar
    23    8   27 1
    24    9   10 ar
    25    9   28 1
    26   10   11 ar
    27   10   14 1
    28   11   12 ar
    29   11   13 1
    30   12   29 1
    31   13   30 1
    32   14   31 1
    33   15   32 1
@<TRIPOS>MOLECULE
CHEMBL434__1
   33    33     0     0     0
SMALL
USER_CHARGES

@<TRIPOS>ATOM
      1 C1         -0.0187    1.5258    0.0104 C.3       1 <0>        -0.1867
      2 C2          0.0021   -0.0041    0.0020 C.3       1 <0>         0.0237
      3 C3          0.7421   -0.5109    1.2415 C.3       1 <0>        -0.1847
      4 N1         -1.3761   -0.5125    0.0124 N.4       1 <0>        -0.5036
      5 C4         -2.0500   -0.1262   -1.2343 C.3       1 <0>        -0.0470
      6 C5         -3.4854   -0.6557   -1.2235 C.3       1 <0>         0.1380
      7 C6         -4.1768   -0.2594   -2.5025 C.ar      1 <0>        -0.1371
      8 C7         -4.0413   -1.0452   -3.6319 C.ar      1 <0>        -0.0979
      9 C8         -4.6735   -0.6859   -4.8076 C.ar      1 <0>        -0.1234
     10 C9         -5.4454    0.4639   -4.8558 C.ar      1 <0>         0.1046
     11 C10        -5.5821    1.2546   -3.7189 C.ar      1 <0>         0.0899
     12 C11        -4.9497    0.8861   -2.5423 C.ar      1 <0>        -0.1137
     13 O1         -6.3386    2.3839   -3.7612 O.3       1 <0>        -0.4846
     14 O2         -6.0676    0.8190   -6.0117 O.3       1 <0>        -0.4850
     15 O3         -3.4667   -2.0804   -1.1139 O.3       1 <0>        -0.5470
     16 H1          1.0039    1.9031    0.0027 H         1 <0>         0.1073
     17 H2         -0.5459    1.8868   -0.8726 H         1 <0>         0.0808
     18 H3         -0.5289    1.8773    0.9072 H         1 <0>         0.0830
     19 H4          0.5123   -0.3556   -0.8948 H         1 <0>         0.1384
     20 H5          0.2319   -0.1594    2.1383 H         1 <0>         0.0824
     21 H6          0.7568   -1.6008    1.2356 H         1 <0>         0.0825
     22 H7          1.7647   -0.1336    1.2338 H         1 <0>         0.1075
     23 H8         -1.3629   -1.5185    0.0898 H         1 <0>         0.4316
     24 H9         -2.0643    0.9605   -1.3179 H         1 <0>         0.1461
     25 H10        -1.5132   -0.5489   -2.0836 H         1 <0>         0.1375
     26 H11        -4.0222   -0.2330   -0.3742 H         1 <0>         0.1328
     27 H12        -3.4399   -1.9415   -3.5957 H         1 <0>         0.1307
     28 H13        -4.5655   -1.3011   -5.6887 H         1 <0>         0.1434
     29 H14        -5.0572    1.4960   -1.6576 H         1 <0>         0.1386
     30 H15        -7.2680    2.2434   -3.5341 H         1 <0>         0.3969
     31 H16        -6.9582    0.4546   -6.1070 H         1 <0>         0.3989
     32 H17        -3.0042   -2.5245   -1.8377 H         1 <0>         0.3888
     33 H18        -1.8730   -0.1212    0.7986 H         1 <0>         0.4271
@<TRIPOS>BOND
     1    1    2 1
     2    1   16 1
     3    1   17 1
     4    1   18 1
     5    2    3 1
     6    2    4 1
     7    2   19 1
     8    3   20 1
     9    3   21 1
    10    3   22 1
    11    4    5 1
    12    4   23 1
    13    4   33 1
    14    5    6 1
    15    5   24 1
    16    5   25 1
    17    6    7 1
    18    6   15 1
    19    6   26 1
    20    7   12 ar
    21    7    8 ar
    22    8    9 ar
    23    8   27 1
    24    9   10 ar
    25    9   28 1
    26   10   11 ar
    27   10   14 1
    28   11   12 ar
    29   11   13 1
    30   12   29 1
    31   13   30 1
    32   14   31 1
    33   15   32 1
@<TRIPOS>MOLECULE
CHEMBL554785
   35    37     0     0     0
SMALL
USER_CHARGES

@<TRIPOS>ATOM
      1 C1          0.0286    1.5033    0.0105 C.3       1 <0>        -0.0833
      2 C2          0.0417   -0.0036    0.0021 C.2       1 <0>        -0.0210
      3 C3          0.0608   -0.8019   -1.0920 C.2       1 <0>         0.0314
      4 N1          0.0672   -2.0732   -0.6894 N.2       1 <0>        -0.4694
      5 C4          0.0528   -2.1095    0.6316 C.2       1 <0>         0.1274
      6 N2          0.0425   -0.8176    1.0921 N.pl3     1 <0>        -0.3259
      7 C5          0.0321   -0.5896    2.4438 C.2       1 <0>        -0.0466
      8 C6          0.0355   -1.6293    3.3008 C.2       1 <0>         0.1244
      9 N3          0.0494   -2.8924    2.8622 N.2       1 <0>        -0.5334
     10 C7          0.0510   -3.1689    1.5738 C.2       1 <0>         0.4790
     11 N4          0.0667   -4.4860    1.1429 N.pl3     1 <0>        -0.6028
     12 C8          0.2056   -5.5937    2.1009 C.3       1 <0>         0.0996
     13 C9         -0.9030   -6.6152    1.8263 C.3       1 <0>        -0.0212
     14 N5         -0.8531   -7.0232    0.4167 N.4       1 <0>        -0.5062
     15 C10        -1.1519   -5.8742   -0.4474 C.3       1 <0>        -0.0200
     16 C11        -0.0612   -4.8163   -0.2850 C.3       1 <0>         0.0771
     17 C12         0.0239   -1.3632    4.7841 C.3       1 <0>        -0.0965
     18 H1          1.0531    1.8755    0.0183 H         1 <0>         0.0826
     19 H2         -0.4833    1.8671   -0.8804 H         1 <0>         0.0941
     20 H3         -0.4934    1.8572    0.8995 H         1 <0>         0.0709
     21 H4          0.0690   -0.4653   -2.1181 H         1 <0>         0.1922
     22 H5          0.0215    0.4222    2.8214 H         1 <0>         0.1737
     23 H6          1.1793   -6.0671    1.9748 H         1 <0>         0.0939
     24 H7          0.1091   -5.2129    3.1176 H         1 <0>         0.1408
     25 H8         -0.7586   -7.4882    2.4627 H         1 <0>         0.1471
     26 H9         -1.8726   -6.1656    2.0405 H         1 <0>         0.1344
     27 H10         0.0683   -7.3736    0.2016 H         1 <0>         0.4288
     28 H11        -1.1907   -6.2013   -1.4865 H         1 <0>         0.1484
     29 H12        -2.1139   -5.4471   -0.1645 H         1 <0>         0.1329
     30 H13        -0.3340   -3.9217   -0.8448 H         1 <0>         0.1670
     31 H14         0.8851   -5.2098   -0.6561 H         1 <0>         0.0943
     32 H15        -1.0064   -1.3078    5.1353 H         1 <0>         0.0852
     33 H16         0.5414   -2.1707    5.3021 H         1 <0>         0.0851
     34 H17         0.5285   -0.4188    4.9878 H         1 <0>         0.0829
     35 H18        -1.5333   -7.7506    0.2541 H         1 <0>         0.4334
@<TRIPOS>BOND
     1    1    2 1
     2    1   18 1
     3    1   19 1
     4    1   20 1
     5    2    6 1
     6    2    3 2
     7    3    4 1
     8    3   21 1
     9    4    5 2
    10    5   10 1
    11    5    6 1
    12    6    7 1
    13    7    8 2
    14    7   22 1
    15    8    9 1
    16    8   17 1
    17    9   10 2
    18   10   11 1
    19   11   16 1
    20   11   12 1
    21   12   13 1
    22   12   23 1
    23   12   24 1
    24   13   14 1
    25   13   25 1
    26   13   26 1
    27   14   15 1
    28   14   27 1
    29   14   35 1
    30   15   16 1
    31   15   28 1
    32   15   29 1
    33   16   30 1
    34   16   31 1
    35   17   32 1
    36   17   33 1
    37   17   34 1
@<TRIPOS>MOLECULE
CHEMBL561693
   59    61     0     0     0
SMALL
USER_CHARGES

@<TRIPOS>ATOM
      1 C1         -0.0126    1.3750   -0.1791 C.ar      1 <0>        -0.0857
      2 C2          1.1743    2.0812   -0.1820 C.ar      1 <0>        -0.1195
      3 C3          2.3796    1.4110   -0.0183 C.ar      1 <0>         0.1689
      4 C4          2.3872    0.0323    0.1478 C.ar      1 <0>        -0.1437
      5 C5          1.1968   -0.6680    0.1497 C.ar      1 <0>        -0.0857
      6 C6         -0.0017    0.0022   -0.0136 C.ar      1 <0>        -0.1281
      7 C7         -1.2987   -0.7652   -0.0110 C.3       1 <0>        -0.0978
      8 C8         -1.6390   -1.1964   -1.4390 C.3       1 <0>        -0.0069
      9 N1         -2.9032   -1.9444   -1.4365 N.4       1 <0>        -0.5039
     10 C9         -3.2299   -2.3584   -2.8076 C.3       1 <0>        -0.0415
     11 C10        -4.5467   -3.1375   -2.8050 C.3       1 <0>         0.0854
     12 H1         -5.3437   -2.5028   -2.4175 H         1 <0>         0.1364
     13 C11        -4.8870   -3.5687   -4.2330 C.3       1 <0>         0.0290
     14 O1         -6.1718   -4.1940   -4.2484 O.3       1 <0>        -0.3011
     15 C12        -6.6276   -4.6389   -5.4499 C.ar      1 <0>         0.1087
     16 C13        -5.8505   -4.4812   -6.5879 C.ar      1 <0>        -0.1914
     17 C14        -6.3134   -4.9331   -7.8083 C.ar      1 <0>        -0.1062
     18 C15        -7.5551   -5.5450   -7.8957 C.ar      1 <0>         0.0805
     19 C16        -8.3317   -5.7035   -6.7576 C.ar      1 <0>        -0.1026
     20 C17        -7.8669   -5.2554   -5.5364 C.ar      1 <0>        -0.1259
     21 O2         -8.0112   -5.9890   -9.0974 O.3       1 <0>        -0.4957
     22 O3         -4.4140   -4.2945   -1.9769 O.3       1 <0>        -0.5432
     23 N2          3.5839    2.1235   -0.0212 N.am      1 <0>        -0.6794
     24 C18         3.6279    3.3746    0.4780 C.2       1 <0>         0.5183
     25 O4          2.6492    3.8477    1.0159 O.2       1 <0>        -0.5022
     26 C19         4.8932    4.1858    0.3677 C.3       1 <0>        -0.1022
     27 C20         4.6798    5.5376    0.9986 C.ar      1 <0>        -0.0327
     28 C21         4.2063    6.6038    0.2492 C.ar      1 <0>        -0.1596
     29 C22         4.0230    7.8289    0.8620 C.ar      1 <0>         0.1031
     30 N3          4.2933    7.9897    2.1426 N.ar      1 <0>        -0.4810
     31 C23         4.7449    6.9984    2.8858 C.ar      1 <0>         0.1039
     32 C24         4.9469    5.7434    2.3434 C.ar      1 <0>        -0.1585
     33 H2         -0.9506    1.8961   -0.3019 H         1 <0>         0.1282
     34 H3          1.1652    3.1533   -0.3117 H         1 <0>         0.1398
     35 H4          3.3229   -0.4918    0.2749 H         1 <0>         0.1331
     36 H5          1.2020   -1.7403    0.2784 H         1 <0>         0.1291
     37 H6         -1.1975   -1.6477    0.6206 H         1 <0>         0.0965
     38 H7         -2.0956   -0.1305    0.3765 H         1 <0>         0.0965
     39 H8         -1.7402   -0.3139   -2.0707 H         1 <0>         0.1344
     40 H9         -0.8420   -1.8311   -1.8265 H         1 <0>         0.1338
     41 H10        -2.8096   -2.7613   -0.8518 H         1 <0>         0.4335
     42 H11        -3.3312   -1.4759   -3.4393 H         1 <0>         0.1472
     43 H12        -2.4330   -2.9931   -3.1951 H         1 <0>         0.1397
     44 H13        -4.9008   -2.6939   -4.8832 H         1 <0>         0.0820
     45 H14        -4.1355   -4.2737   -4.5885 H         1 <0>         0.0767
     46 H15        -4.8837   -4.0047   -6.5198 H         1 <0>         0.1284
     47 H16        -5.7087   -4.8097   -8.6946 H         1 <0>         0.1352
     48 H17        -9.2987   -6.1796   -6.8257 H         1 <0>         0.1419
     49 H18        -8.4701   -5.3822   -4.6495 H         1 <0>         0.1388
     50 H19        -7.7664   -6.9029   -9.2976 H         1 <0>         0.3940
     51 H20        -3.7215   -4.9057   -2.2631 H         1 <0>         0.3899
     52 H21         4.3871    1.7169   -0.3824 H         1 <0>         0.4165
     53 H22         5.7026    3.6683    0.8826 H         1 <0>         0.1148
     54 H23         5.1533    4.3122   -0.6833 H         1 <0>         0.1155
     55 H24         3.9838    6.4785   -0.8002 H         1 <0>         0.1329
     56 H25         3.6545    8.6644    0.2853 H         1 <0>         0.1582
     57 H26         4.9555    7.1682    3.9314 H         1 <0>         0.1587
     58 H27         5.3123    4.9342    2.9584 H         1 <0>         0.1336
     59 H28        -3.6409   -1.3569   -1.0778 H         1 <0>         0.4314
@<TRIPOS>BOND
     1    1    6 ar
     2    1    2 ar
     3    1   33 1
     4    2    3 ar
     5    2   34 1
     6    3    4 ar
     7    3   23 1
     8    4    5 ar
     9    4   35 1
    10    5    6 ar
    11    5   36 1
    12    6    7 1
    13    7    8 1
    14    7   37 1
    15    7   38 1
    16    8    9 1
    17    8   39 1
    18    8   40 1
    19    9   10 1
    20    9   41 1
    21    9   59 1
    22   10   11 1
    23   10   42 1
    24   10   43 1
    25   11   12 1
    26   11   13 1
    27   11   22 1
    28   13   14 1
    29   13   44 1
    30   13   45 1
    31   14   15 1
    32   15   20 ar
    33   15   16 ar
    34   16   17 ar
    35   16   46 1
    36   17   18 ar
    37   17   47 1
    38   18   19 ar
    39   18   21 1
    40   19   20 ar
    41   19   48 1
    42   20   49 1
    43   21   50 1
    44   22   51 1
    45   23   24 am
    46   23   52 1
    47   24   25 2
    48   24   26 1
    49   26   27 1
    50   26   53 1
    51   26   54 1
    52   27   32 ar
    53   27   28 ar
    54   28   29 ar
    55   28   55 1
    56   29   30 ar
    57   29   56 1
    58   30   31 ar
    59   31   32 ar
    60   31   57 1
    61   32   58 1
@<TRIPOS>MOLECULE
CHEMBL268258
   54    57     0     0     0
SMALL
USER_CHARGES

@<TRIPOS>ATOM
      1 C1          0.2189    1.5165    0.0196 C.3       1 <0>        -0.0599
      2 N1          0.0464    0.0579   -0.0032 N.4       1 <0>        -0.3870
      3 C2          0.7669   -0.5382    1.1296 C.3       1 <0>        -0.0080
      4 C3          0.1282   -0.0755    2.4407 C.3       1 <0>        -0.0967
      5 C4          0.8675   -0.6870    3.6028 C.ar      1 <0>        -0.0833
      6 C5          0.4649   -1.9175    4.1017 C.ar      1 <0>        -0.1286
      7 C6          1.1241   -2.4864    5.1559 C.ar      1 <0>        -0.0621
      8 C7          2.2077   -1.8248    5.7316 C.ar      1 <0>        -0.1187
      9 C8          3.1231   -2.1249    6.8391 C.2       1 <0>        -0.2143
     10 C9          3.9708   -1.0899    6.9140 C.2       1 <0>         0.0238
     11 O1          3.6761   -0.1804    5.9687 O.3       1 <0>        -0.1922
     12 C10         2.6206   -0.5788    5.2308 C.ar      1 <0>         0.0502
     13 C11         1.9402   -0.0207    4.1556 C.ar      1 <0>        -0.0924
     14 C12         0.5820   -0.4790   -1.2614 C.3       1 <0>        -0.0081
     15 C13        -0.2635    0.0261   -2.4323 C.3       1 <0>        -0.0619
     16 H1         -0.2680    1.1160   -2.4284 H         1 <0>         0.1062
     17 C14        -1.6947   -0.4840   -2.2768 C.3       1 <0>        -0.1345
     18 C15        -2.4675   -0.1545   -3.5595 C.3       1 <0>        -0.1169
     19 C16        -1.9322   -1.0384   -4.6843 C.3       1 <0>        -0.0781
     20 C17        -0.4305   -0.9478   -4.7599 C.ar      1 <0>        -0.0926
     21 C18         0.3354   -0.4636   -3.7249 C.ar      1 <0>        -0.0547
     22 C19         1.7173   -0.4136   -3.8569 C.ar      1 <0>        -0.1640
     23 C20         2.3295   -0.8425   -5.0169 C.ar      1 <0>        -0.0737
     24 C21         1.5637   -1.3264   -6.0597 C.ar      1 <0>        -0.1986
     25 C22         0.1873   -1.3782   -5.9325 C.ar      1 <0>         0.1356
     26 O2         -0.5672   -1.8548   -6.9575 O.3       1 <0>        -0.3117
     27 C23         0.1277   -2.2797   -8.1316 C.3       1 <0>         0.0237
     28 H2          1.2821    1.7566    0.0204 H         1 <0>         0.1252
     29 H3         -0.2512    1.9518   -0.8623 H         1 <0>         0.1262
     30 H4         -0.2462    1.9234    0.9175 H         1 <0>         0.1271
     31 H5          0.7134   -1.6249    1.0630 H         1 <0>         0.1338
     32 H6          1.8102   -0.2235    1.1028 H         1 <0>         0.1329
     33 H7          0.1817    1.0111    2.5073 H         1 <0>         0.0981
     34 H8         -0.9150   -0.3903    2.4675 H         1 <0>         0.0993
     35 H9         -0.3748   -2.4290    3.6548 H         1 <0>         0.1317
     36 H10         0.8065   -3.4441    5.5412 H         1 <0>         0.1346
     37 H11         3.1149   -3.0033    7.4674 H         1 <0>         0.1646
     38 H12         4.7744   -0.9994    7.6299 H         1 <0>         0.2153
     39 H13         2.2481    0.9346    3.7568 H         1 <0>         0.1338
     40 H14         1.6127   -0.1479   -1.3881 H         1 <0>         0.1355
     41 H15         0.5510   -1.5682   -1.2340 H         1 <0>         0.1352
     42 H16        -1.6851   -1.5627   -2.1209 H         1 <0>         0.0827
     43 H17        -2.1688    0.0062   -1.4265 H         1 <0>         0.0671
     44 H18        -3.5288   -0.3530   -3.4100 H         1 <0>         0.0809
     45 H19        -2.3222    0.8948   -3.8164 H         1 <0>         0.0720
     46 H20        -2.2209   -2.0726   -4.4970 H         1 <0>         0.0805
     47 H21        -2.3601   -0.7124   -5.6322 H         1 <0>         0.0857
     48 H22         2.3187   -0.0355   -3.0434 H         1 <0>         0.1207
     49 H23         3.4048   -0.8003   -5.1091 H         1 <0>         0.1309
     50 H24         2.0375   -1.6616   -6.9705 H         1 <0>         0.1350
     51 H25        -0.5905   -2.6365   -8.8698 H         1 <0>         0.1072
     52 H26         0.6881   -1.4415   -8.5456 H         1 <0>         0.0596
     53 H27         0.8157   -3.0854   -7.8751 H         1 <0>         0.0594
     54 H28        -0.9350   -0.1659    0.0671 H         1 <0>         0.4234
@<TRIPOS>BOND
     1    1    2 1
     2    1   28 1
     3    1   29 1
     4    1   30 1
     5    2    3 1
     6    2   14 1
     7    2   54 1
     8    3    4 1
     9    3   31 1
    10    3   32 1
    11    4    5 1
    12    4   33 1
    13    4   34 1
    14    5   13 ar
    15    5    6 ar
    16    6    7 ar
    17    6   35 1
    18    7    8 ar
    19    7   36 1
    20    8   12 ar
    21    8    9 1
    22    9   10 2
    23    9   37 1
    24   10   11 1
    25   10   38 1
    26   11   12 1
    27   12   13 ar
    28   13   39 1
    29   14   15 1
    30   14   40 1
    31   14   41 1
    32   15   16 1
    33   15   21 1
    34   15   17 1
    35   17   18 1
    36   17   42 1
    37   17   43 1
    38   18   19 1
    39   18   44 1
    40   18   45 1
    41   19   20 1
    42   19   46 1
    43   19   47 1
    44   20   25 ar
    45   20   21 ar
    46   21   22 ar
    47   22   23 ar
    48   22   48 1
    49   23   24 ar
    50   23   49 1
    51   24   25 ar
    52   24   50 1
    53   25   26 1
    54   26   27 1
    55   27   51 1
    56   27   52 1
    57   27   53 1
@<TRIPOS>MOLECULE
CHEMBL1095777
   57    60     0     0     0
SMALL
USER_CHARGES

@<TRIPOS>ATOM
      1 C1         -0.0187    1.5258    0.0104 C.3       1 <0>        -0.1493
      2 C2          0.0021   -0.0041    0.0020 C.3       1 <0>        -0.0935
      3 C3          0.7309   -0.5033    1.2229 C.ar      1 <0>        -0.0637
      4 C4          2.0763   -0.8080    1.1486 C.ar      1 <0>        -0.0914
      5 C5          2.7497   -1.2669    2.2679 C.ar      1 <0>        -0.1041
      6 C6          2.0726   -1.4201    3.4636 C.ar      1 <0>        -0.1064
      7 C7          0.7244   -1.1136    3.5363 C.ar      1 <0>        -0.0919
      8 C8          0.0554   -0.6513    2.4196 C.ar      1 <0>        -0.0650
      9 C9         -1.4109   -0.3140    2.5046 C.3       1 <0>        -0.0928
     10 C10        -2.2386   -1.5206    2.0572 C.3       1 <0>        -0.1497
     11 C11         3.0213   -1.9308    4.5268 C.3       1 <0>        -0.0926
     12 C12         4.2351   -2.4864    3.7520 C.3       1 <0>         0.0218
     13 C13         4.1994   -1.6642    2.4463 C.3       1 <0>        -0.0921
     14 N1          5.4818   -2.2415    4.4893 N.4       1 <0>        -0.4992
     15 C14         6.6004   -2.8846    3.7872 C.3       1 <0>        -0.0481
     16 C15         7.8989   -2.6295    4.5551 C.3       1 <0>         0.1620
     17 H1          7.8143   -3.0437    5.5598 H         1 <0>         0.1155
     18 C16         9.0465   -3.2893    3.8348 C.ar      1 <0>        -0.2622
     19 C17         9.8114   -2.5695    2.9613 C.ar      1 <0>        -0.0410
     20 C18        10.8708   -3.1654    2.2918 C.ar      1 <0>        -0.2645
     21 C19        11.1724   -4.4990    2.4961 C.ar      1 <0>         0.2699
     22 C20        10.4037   -5.2523    3.3846 C.ar      1 <0>         0.0642
     23 C21         9.3349   -4.6394    4.0632 C.ar      1 <0>        -0.0667
     24 C22         8.5371   -5.4365    4.9970 C.2       1 <0>        -0.0487
     25 C23         8.8624   -6.7402    5.1784 C.2       1 <0>        -0.2052
     26 C24         9.9490   -7.3061    4.4774 C.2       1 <0>         0.5122
     27 O1         10.2246   -8.4800    4.6556 O.2       1 <0>        -0.5713
     28 N2         10.6800   -6.5853    3.6089 N.am      1 <0>        -0.5936
     29 H2         11.4196   -7.0054    3.1426 H         1 <0>         0.4201
     30 O2         12.2119   -5.0738    1.8346 O.3       1 <0>        -0.6865
     31 O3          8.1346   -1.2225    4.6383 O.3       1 <0>        -0.5572
     32 H3          1.0039    1.9031    0.0027 H         1 <0>         0.0564
     33 H4         -0.5459    1.8868   -0.8726 H         1 <0>         0.0630
     34 H5         -0.5289    1.8773    0.9072 H         1 <0>         0.0575
     35 H6         -1.0205   -0.3814    0.0098 H         1 <0>         0.0804
     36 H7          0.5123   -0.3556   -0.8948 H         1 <0>         0.0750
     37 H8          2.6045   -0.6881    0.2142 H         1 <0>         0.1264
     38 H9          0.1949   -1.2329    4.4700 H         1 <0>         0.1254
     39 H10        -1.6662   -0.0597    3.5333 H         1 <0>         0.0740
     40 H11        -1.6266    0.5351    1.8561 H         1 <0>         0.0804
     41 H12        -1.9833   -1.7749    1.0285 H         1 <0>         0.0581
     42 H13        -2.0229   -2.3697    2.7057 H         1 <0>         0.0562
     43 H14        -3.2991   -1.2766    2.1187 H         1 <0>         0.0628
     44 H15         3.3309   -1.1155    5.1807 H         1 <0>         0.0987
     45 H16         2.5481   -2.7231    5.1070 H         1 <0>         0.1044
     46 H17         4.1089   -3.5490    3.5444 H         1 <0>         0.1535
     47 H18         4.5305   -2.2743    1.6060 H         1 <0>         0.1053
     48 H19         4.8257   -0.7771    2.5406 H         1 <0>         0.0988
     49 H20         5.6482   -1.2480    4.5481 H         1 <0>         0.4280
     50 H21         6.4207   -3.9578    3.7237 H         1 <0>         0.1413
     51 H22         6.6851   -2.4704    2.7825 H         1 <0>         0.1356
     52 H23         9.5892   -1.5266    2.7898 H         1 <0>         0.0997
     53 H24        11.4652   -2.5818    1.6043 H         1 <0>         0.1112
     54 H25         7.7077   -4.9955    5.5300 H         1 <0>         0.1235
     55 H26         8.2883   -7.3478    5.8621 H         1 <0>         0.1442
     56 H27         8.2207   -0.7867    3.7794 H         1 <0>         0.3836
     57 H28         5.4035   -2.6249    5.4193 H         1 <0>         0.4279
@<TRIPOS>BOND
     1    1    2 1
     2    1   32 1
     3    1   33 1
     4    1   34 1
     5    2    3 1
     6    2   35 1
     7    2   36 1
     8    3    8 ar
     9    3    4 ar
    10    4    5 ar
    11    4   37 1
    12    5   13 1
    13    5    6 ar
    14    6    7 ar
    15    6   11 1
    16    7    8 ar
    17    7   38 1
    18    8    9 1
    19    9   10 1
    20    9   39 1
    21    9   40 1
    22   10   41 1
    23   10   42 1
    24   10   43 1
    25   11   12 1
    26   11   44 1
    27   11   45 1
    28   12   13 1
    29   12   14 1
    30   12   46 1
    31   13   47 1
    32   13   48 1
    33   14   15 1
    34   14   49 1
    35   14   57 1
    36   15   16 1
    37   15   50 1
    38   15   51 1
    39   16   17 1
    40   16   18 1
    41   16   31 1
    42   18   23 ar
    43   18   19 ar
    44   19   20 ar
    45   19   52 1
    46   20   21 ar
    47   20   53 1
    48   21   22 ar
    49   21   30 1
    50   22   28 1
    51   22   23 ar
    52   23   24 1
    53   24   25 2
    54   24   54 1
    55   25   26 1
    56   25   55 1
    57   26   27 2
    58   26   28 am
    59   28   29 1
    60   31   56 1
@<TRIPOS>MOLECULE
CHEMBL399785
   50    52     0     0     0
SMALL
USER_CHARGES

@<TRIPOS>ATOM
      1 C1         -0.0187    1.5258    0.0104 C.3       1 <0>        -0.1482
      2 C2          0.0021   -0.0041    0.0020 C.3       1 <0>        -0.0388
      3 C3         -1.4117   -0.5257    0.0127 C.2       1 <0>         0.0681
      4 N1         -2.1793   -0.8055   -1.0082 N.2       1 <0>        -0.5154
      5 C4         -3.4123   -1.2614   -0.8397 C.2       1 <0>         0.0991
      6 C5         -3.8330   -1.4213    0.4533 C.2       1 <0>        -0.2288
      7 S1         -2.3765   -0.8940    1.3412 S.3       1 <0>         0.1299
      8 C6         -4.2908   -1.5811   -1.9917 C.ar      1 <0>        -0.0358
      9 C7         -5.5842   -2.0527   -1.7739 C.ar      1 <0>        -0.0639
     10 C8         -6.3987   -2.3487   -2.8470 C.ar      1 <0>        -0.1383
     11 C9         -5.9315   -2.1772   -4.1428 C.ar      1 <0>         0.1158
     12 C10        -4.6440   -1.7077   -4.3630 C.ar      1 <0>        -0.2025
     13 C11        -3.8265   -1.4050   -3.2940 C.ar      1 <0>        -0.0462
     14 O1         -6.7363   -2.4701   -5.1981 O.3       1 <0>        -0.3281
     15 C12        -6.1919   -2.2705   -6.5042 C.3       1 <0>         0.0241
     16 C13        -7.2362   -2.6508   -7.5557 C.3       1 <0>         0.0007
     17 N2         -8.3785   -1.7315   -7.4661 N.4       1 <0>        -0.5061
     18 C14        -9.3812   -2.0967   -8.4757 C.3       1 <0>        -0.0435
     19 C15       -10.5710   -1.1392   -8.3824 C.3       1 <0>         0.1415
     20 H1        -10.2311   -0.1190   -8.5603 H         1 <0>         0.1337
     21 C16       -11.5996   -1.5138   -9.4181 C.ar      1 <0>        -0.2004
     22 C17       -11.6119   -0.8862  -10.6546 C.ar      1 <0>        -0.0549
     23 C18       -12.5764   -1.2630  -11.5762 C.ar      1 <0>        -0.1642
     24 C19       -13.4875   -2.2447  -11.2345 C.ar      1 <0>         0.1226
     25 N3        -13.4462   -2.8199  -10.0487 N.ar      1 <0>        -0.4747
     26 C20       -12.5390   -2.4911   -9.1496 C.ar      1 <0>         0.1175
     27 O2        -11.1523   -1.2273   -7.0800 O.3       1 <0>        -0.5451
     28 H2          1.0039    1.9031    0.0027 H         1 <0>         0.0741
     29 H3         -0.5459    1.8868   -0.8726 H         1 <0>         0.0610
     30 H4         -0.5289    1.8773    0.9072 H         1 <0>         0.0598
     31 H5          0.5123   -0.3556   -0.8948 H         1 <0>         0.0988
     32 H6          0.5293   -0.3651    0.8851 H         1 <0>         0.0944
     33 H7         -4.7816   -1.7727    0.8314 H         1 <0>         0.1979
     34 H8         -5.9481   -2.1866   -0.7659 H         1 <0>         0.1383
     35 H9         -7.4008   -2.7145   -2.6789 H         1 <0>         0.1377
     36 H10        -4.2832   -1.5757   -5.3723 H         1 <0>         0.1301
     37 H11        -2.8262   -1.0359   -3.4659 H         1 <0>         0.1405
     38 H12        -5.9173   -1.2229   -6.6272 H         1 <0>         0.0886
     39 H13        -5.3071   -2.8950   -6.6284 H         1 <0>         0.1118
     40 H14        -6.7928   -2.5836   -8.5491 H         1 <0>         0.1524
     41 H15        -7.5761   -3.6711   -7.3777 H         1 <0>         0.1440
     42 H16        -8.7890   -1.7938   -6.5465 H         1 <0>         0.4395
     43 H17        -8.9378   -2.0295   -9.4691 H         1 <0>         0.1456
     44 H18        -9.7211   -3.1170   -8.2978 H         1 <0>         0.1390
     45 H19       -10.8874   -0.1218  -10.8937 H         1 <0>         0.1410
     46 H20       -12.6158   -0.7951  -12.5488 H         1 <0>         0.1472
     47 H21       -14.2421   -2.5440  -11.9468 H         1 <0>         0.1673
     48 H22       -12.5332   -2.9880   -8.1908 H         1 <0>         0.1533
     49 H23       -11.4775   -2.1094   -6.8532 H         1 <0>         0.3904
     50 H24        -8.0639   -0.7871   -7.6308 H         1 <0>         0.4292
@<TRIPOS>BOND
     1    1    2 1
     2    1   28 1
     3    1   29 1
     4    1   30 1
     5    2    3 1
     6    2   31 1
     7    2   32 1
     8    3    7 1
     9    3    4 2
    10    4    5 1
    11    5    6 2
    12    5    8 1
    13    6    7 1
    14    6   33 1
    15    8   13 ar
    16    8    9 ar
    17    9   10 ar
    18    9   34 1
    19   10   11 ar
    20   10   35 1
    21   11   12 ar
    22   11   14 1
    23   12   13 ar
    24   12   36 1
    25   13   37 1
    26   14   15 1
    27   15   16 1
    28   15   38 1
    29   15   39 1
    30   16   17 1
    31   16   40 1
    32   16   41 1
    33   17   18 1
    34   17   42 1
    35   17   50 1
    36   18   19 1
    37   18   43 1
    38   18   44 1
    39   19   20 1
    40   19   21 1
    41   19   27 1
    42   21   26 ar
    43   21   22 ar
    44   22   23 ar
    45   22   45 1
    46   23   24 ar
    47   23   46 1
    48   24   25 ar
    49   24   47 1
    50   25   26 ar
    51   26   48 1
    52   27   49 1
@<TRIPOS>MOLECULE
CHEMBL399785__1
   49    51     0     0     0
SMALL
USER_CHARGES

@<TRIPOS>ATOM
      1 C1         -0.0187    1.5258    0.0104 C.3       1 <0>        -0.1479
      2 C2          0.0021   -0.0041    0.0020 C.3       1 <0>        -0.0366
      3 C3          0.7074   -0.4901   -1.2379 C.2       1 <0>         0.0651
      4 N1          1.9796   -0.7469   -1.3976 N.2       1 <0>        -0.5124
      5 C4          2.4568   -1.1723   -2.5586 C.2       1 <0>         0.1144
      6 C5          1.5498   -1.3262   -3.5724 C.2       1 <0>        -0.2320
      7 S1          0.0447   -0.8387   -2.7447 S.3       1 <0>         0.1069
      8 C6          3.8986   -1.4659   -2.7496 C.ar      1 <0>        -0.0638
      9 C7          4.3636   -1.9056   -3.9878 C.ar      1 <0>        -0.0617
     10 C8          5.7046   -2.1773   -4.1624 C.ar      1 <0>        -0.1518
     11 C9          6.5907   -2.0131   -3.1066 C.ar      1 <0>         0.1423
     12 C10         6.1306   -1.5753   -1.8724 C.ar      1 <0>        -0.2104
     13 C11         4.7916   -1.2970   -1.6930 C.ar      1 <0>        -0.0429
     14 O1          7.9114   -2.2820   -3.2817 O.3       1 <0>        -0.3151
     15 C12         8.7673   -2.0916   -2.1533 C.3       1 <0>         0.0581
     16 C13        10.2057   -2.4419   -2.5395 C.3       1 <0>         0.0617
     17 N2         10.6847   -1.4945   -3.5549 N.3       1 <0>        -0.6844
     18 C14        12.0658   -1.8008   -3.9507 C.3       1 <0>         0.0317
     19 C15        12.5285   -0.7952   -5.0070 C.3       1 <0>         0.1562
     20 H1         12.4840    0.2124   -4.5936 H         1 <0>         0.1193
     21 C16        13.9453   -1.1094   -5.4131 C.ar      1 <0>        -0.1714
     22 C17        15.0101   -0.4623   -4.8042 C.ar      1 <0>        -0.0634
     23 C18        16.2963   -0.7832   -5.2099 C.ar      1 <0>        -0.1686
     24 C19        16.4735   -1.7306   -6.2006 C.ar      1 <0>         0.0995
     25 N3         15.4371   -2.3256   -6.7579 N.ar      1 <0>        -0.4808
     26 C20        14.2001   -2.0499   -6.3928 C.ar      1 <0>         0.1071
     27 O2         11.6755   -0.8791   -6.1504 O.3       1 <0>        -0.5480
     28 H2          1.0039    1.9031    0.0027 H         1 <0>         0.0621
     29 H3         -0.5459    1.8868   -0.8726 H         1 <0>         0.0589
     30 H4         -0.5289    1.8773    0.9072 H         1 <0>         0.0715
     31 H5          0.5293   -0.3651    0.8851 H         1 <0>         0.0976
     32 H6         -1.0205   -0.3814    0.0098 H         1 <0>         0.0916
     33 H7          1.7018   -1.6550   -4.5898 H         1 <0>         0.1969
     34 H8          3.6746   -2.0339   -4.8095 H         1 <0>         0.1316
     35 H9          6.0655   -2.5184   -5.1214 H         1 <0>         0.1349
     36 H10         6.8224   -1.4489   -1.0527 H         1 <0>         0.1306
     37 H11         4.4349   -0.9524   -0.7336 H         1 <0>         0.1346
     38 H12         8.7203   -1.0507   -1.8332 H         1 <0>         0.0753
     39 H13         8.4425   -2.7376   -1.3377 H         1 <0>         0.0696
     40 H14        10.8435   -2.3823   -1.6575 H         1 <0>         0.0935
     41 H15        10.2374   -3.4539   -2.9431 H         1 <0>         0.0428
     42 H16        10.0726   -1.4840   -4.3569 H         1 <0>         0.3578
     43 H17        12.7164   -1.7368   -3.0786 H         1 <0>         0.0840
     44 H18        12.1104   -2.8083   -4.3641 H         1 <0>         0.0366
     45 H19        14.8413    0.2743   -4.0327 H         1 <0>         0.1379
     46 H20        17.1491   -0.2988   -4.7577 H         1 <0>         0.1389
     47 H21        17.4723   -1.9862   -6.5223 H         1 <0>         0.1584
     48 H22        13.3766   -2.5617   -6.8685 H         1 <0>         0.1509
     49 H23        11.6655   -1.7499   -6.5706 H         1 <0>         0.3729
@<TRIPOS>BOND
     1    1    2 1
     2    1   28 1
     3    1   29 1
     4    1   30 1
     5    2    3 1
     6    2   31 1
     7    2   32 1
     8    3    7 1
     9    3    4 2
    10    4    5 1
    11    5    6 2
    12    5    8 1
    13    6    7 1
    14    6   33 1
    15    8   13 ar
    16    8    9 ar
    17    9   10 ar
    18    9   34 1
    19   10   11 ar
    20   10   35 1
    21   11   12 ar
    22   11   14 1
    23   12   13 ar
    24   12   36 1
    25   13   37 1
    26   14   15 1
    27   15   16 1
    28   15   38 1
    29   15   39 1
    30   16   17 1
    31   16   40 1
    32   16   41 1
    33   17   18 1
    34   17   42 1
    35   18   19 1
    36   18   43 1
    37   18   44 1
    38   19   20 1
    39   19   21 1
    40   19   27 1
    41   21   26 ar
    42   21   22 ar
    43   22   23 ar
    44   22   45 1
    45   23   24 ar
    46   23   46 1
    47   24   25 ar
    48   24   47 1
    49   25   26 ar
    50   26   48 1
    51   27   49 1
@<TRIPOS>MOLECULE
CHEMBL290313
   60    62     0     0     0
SMALL
USER_CHARGES

@<TRIPOS>ATOM
      1 C1         -0.0167    1.3775    0.0096 C.ar      1 <0>        -0.0461
      2 C2          1.1686    2.0877    0.0021 C.ar      1 <0>        -0.1793
      3 C3          2.3824    1.4132   -0.0129 C.ar      1 <0>         0.2049
      4 C4          2.4028    0.0254   -0.0203 C.ar      1 <0>        -0.1523
      5 C5          1.2127   -0.6836   -0.0127 C.ar      1 <0>         0.1552
      6 C6          0.0021   -0.0041    0.0020 C.ar      1 <0>        -0.2305
      7 O1          1.2301   -2.0424   -0.0207 O.3       1 <0>        -0.2969
      8 C7         -0.0346   -2.7076   -0.0121 C.3       1 <0>         0.0293
      9 C8          0.1854   -4.2216   -0.0229 C.3       1 <0>         0.0850
     10 C9         -1.1646   -4.9323   -0.1395 C.3       1 <0>        -0.0421
     11 N1         -0.9534   -6.3860   -0.1499 N.4       1 <0>        -0.5019
     12 C10        -2.2495   -7.0683   -0.2618 C.3       1 <0>        -0.0174
     13 C11        -2.0295   -8.5824   -0.2726 C.3       1 <0>         0.0860
     14 N2         -3.3221   -9.2628   -0.3843 N.pl3     1 <0>        -1.1146
     15 S1         -3.3809  -10.8672   -0.7905 S.o2      1 <0>         2.6973
     16 O2         -4.7532  -11.2360   -0.7909 O.2       1 <0>        -0.9242
     17 O3         -2.5484  -11.0282   -1.9308 O.2       1 <0>        -0.9351
     18 C12        -2.6186  -11.7647    0.5203 C.ar      1 <0>        -0.7076
     19 C13        -1.2586  -12.0119    0.4890 C.ar      1 <0>         0.0401
     20 C14        -0.6603  -12.7161    1.5165 C.ar      1 <0>        -0.1436
     21 C15        -1.4224  -13.1736    2.5770 C.ar      1 <0>         0.1007
     22 C16        -2.7830  -12.9255    2.6079 C.ar      1 <0>        -0.6913
     23 C17        -3.3795  -12.2165    1.5821 C.ar      1 <0>         0.0960
     24 S2         -3.7543  -13.5077    3.9578 S.o2      1 <0>         2.6963
     25 O4         -3.0745  -13.1205    5.1441 O.2       1 <0>        -0.9371
     26 O5         -5.0956  -13.1234    3.6885 O.2       1 <0>        -0.9489
     27 N3         -3.7174  -15.1625    3.9099 N.pl3     1 <0>        -1.2430
     28 Cl1        -0.6716  -14.0588    3.8678 Cl        1 <0>        -0.0036
     29 O6          0.8292   -4.6181    1.1897 O.3       1 <0>        -0.5431
     30 C18         3.7199   -0.7056   -0.0361 C.3       1 <0>        -0.0666
     31 C19         4.7397    0.0961   -0.8456 C.3       1 <0>        -0.1399
     32 C20         4.7292    1.5343   -0.4022 C.2       1 <0>         0.5196
     33 O7          5.7651    2.1650   -0.3887 O.2       1 <0>        -0.5131
     34 N4          3.5838    2.1285   -0.0211 N.am      1 <0>        -0.6645
     35 H1         -0.9598    1.9034    0.0259 H         1 <0>         0.1359
     36 H2          1.1510    3.1676    0.0076 H         1 <0>         0.1357
     37 H3         -0.9262   -0.5561    0.0078 H         1 <0>         0.1278
     38 H4         -0.5866   -2.4270    0.8849 H         1 <0>         0.0791
     39 H5         -0.6040   -2.4168   -0.8949 H         1 <0>         0.0842
     40 H6          0.8127   -4.4916   -0.8724 H         1 <0>         0.1379
     41 H7         -1.7919   -4.6623    0.7100 H         1 <0>         0.1429
     42 H8         -1.6557   -4.6299   -1.0644 H         1 <0>         0.1508
     43 H9         -0.3727   -6.6359   -0.9363 H         1 <0>         0.4352
     44 H10        -2.8768   -6.7983    0.5877 H         1 <0>         0.1442
     45 H11        -2.7406   -6.7659   -1.1867 H         1 <0>         0.1469
     46 H12        -1.4022   -8.8523   -1.1222 H         1 <0>         0.1078
     47 H13        -1.5384   -8.8848    0.6523 H         1 <0>         0.0913
     48 H14        -4.1435   -8.7736   -0.2203 H         1 <0>         0.4304
     49 H15        -0.6638  -11.6548   -0.3387 H         1 <0>         0.1606
     50 H16         0.4020  -12.9098    1.4916 H         1 <0>         0.1613
     51 H17        -4.4410  -12.0192    1.6081 H         1 <0>         0.1742
     52 H18        -3.2160  -15.6165    3.2146 H         1 <0>         0.4175
     53 H19        -4.1971  -15.6779    4.5770 H         1 <0>         0.4292
     54 H20         0.3265   -4.4085    1.9887 H         1 <0>         0.3911
     55 H21         4.0807   -0.8259    0.9854 H         1 <0>         0.0831
     56 H22         3.5853   -1.6867   -0.4914 H         1 <0>         0.0937
     57 H23         5.7341   -0.3229   -0.6916 H         1 <0>         0.1134
     58 H24         4.4852    0.0417   -1.9040 H         1 <0>         0.1052
     59 H25         3.5918    3.0597    0.2506 H         1 <0>         0.4165
     60 H26        -0.4988   -6.6659    0.7063 H         1 <0>         0.4362
@<TRIPOS>BOND
     1    1    6 ar
     2    1    2 ar
     3    1   35 1
     4    2    3 ar
     5    2   36 1
     6    3   34 1
     7    3    4 ar
     8    4    5 ar
     9    4   30 1
    10    5    6 ar
    11    5    7 1
    12    6   37 1
    13    7    8 1
    14    8    9 1
    15    8   38 1
    16    8   39 1
    17    9   10 1
    18    9   29 1
    19    9   40 1
    20   10   11 1
    21   10   41 1
    22   10   42 1
    23   11   12 1
    24   11   43 1
    25   11   60 1
    26   12   13 1
    27   12   44 1
    28   12   45 1
    29   13   14 1
    30   13   46 1
    31   13   47 1
    32   14   15 1
    33   14   48 1
    34   15   16 2
    35   15   17 2
    36   15   18 1
    37   18   23 ar
    38   18   19 ar
    39   19   20 ar
    40   19   49 1
    41   20   21 ar
    42   20   50 1
    43   21   22 ar
    44   21   28 1
    45   22   23 ar
    46   22   24 1
    47   23   51 1
    48   24   25 2
    49   24   26 2
    50   24   27 1
    51   27   52 1
    52   27   53 1
    53   29   54 1
    54   30   31 1
    55   30   55 1
    56   30   56 1
    57   31   32 1
    58   31   57 1
    59   31   58 1
    60   32   33 2
    61   32   34 am
    62   34   59 1
@<TRIPOS>MOLECULE
CHEMBL290313__1
   59    61     0     0     0
SMALL
USER_CHARGES

@<TRIPOS>ATOM
      1 C1         -0.0167    1.3775    0.0096 C.ar      1 <0>        -0.0478
      2 C2          1.1686    2.0877    0.0021 C.ar      1 <0>        -0.1877
      3 C3          2.3824    1.4132   -0.0129 C.ar      1 <0>         0.1983
      4 C4          2.4028    0.0254   -0.0203 C.ar      1 <0>        -0.1568
      5 C5          1.2127   -0.6836   -0.0127 C.ar      1 <0>         0.1649
      6 C6          0.0021   -0.0041    0.0020 C.ar      1 <0>        -0.2304
      7 O1          1.2301   -2.0424   -0.0207 O.3       1 <0>        -0.2969
      8 C7         -0.0346   -2.7076   -0.0121 C.3       1 <0>         0.0272
      9 C8          0.1854   -4.2216   -0.0229 C.3       1 <0>         0.1142
     10 C9         -1.1646   -4.9323   -0.1395 C.3       1 <0>         0.0303
     11 N1         -0.9534   -6.3860   -0.1499 N.3       1 <0>        -0.6766
     12 C10        -2.2308   -7.1028   -0.2610 C.3       1 <0>         0.0521
     13 C11        -1.9707   -8.6105   -0.2686 C.3       1 <0>         0.1124
     14 N2         -3.2446   -9.3253   -0.3795 N.pl3     1 <0>        -1.1144
     15 S1         -3.2605  -10.9314   -0.7824 S.o2      1 <0>         2.6986
     16 O2         -4.6225  -11.3366   -0.7827 O.2       1 <0>        -0.9435
     17 O3         -2.4235  -11.0726   -1.9220 O.2       1 <0>        -0.9441
     18 C12        -2.4753  -11.8057    0.5305 C.ar      1 <0>        -0.6996
     19 C13        -1.1092  -12.0167    0.5004 C.ar      1 <0>         0.0485
     20 C14        -0.4929  -12.7027    1.5296 C.ar      1 <0>        -0.1434
     21 C15        -1.2431  -13.1781    2.5907 C.ar      1 <0>         0.0973
     22 C16        -2.6098  -12.9663    2.6205 C.ar      1 <0>        -0.6937
     23 C17        -3.2244  -12.2754    1.5929 C.ar      1 <0>         0.0947
     24 S2         -3.5660  -13.5713    3.9711 S.o2      1 <0>         2.6982
     25 O4         -2.8973  -13.1637    5.1569 O.2       1 <0>        -0.9395
     26 O5         -4.9169  -13.2233    3.7004 O.2       1 <0>        -0.9515
     27 N3         -3.4851  -15.2247    3.9266 N.pl3     1 <0>        -1.2445
     28 Cl1        -0.4697  -14.0404    3.8836 Cl        1 <0>        -0.0152
     29 O6          0.8292   -4.6181    1.1897 O.3       1 <0>        -0.5366
     30 C18         3.7199   -0.7056   -0.0361 C.3       1 <0>        -0.0677
     31 C19         4.7397    0.0961   -0.8456 C.3       1 <0>        -0.1389
     32 C20         4.7292    1.5343   -0.4022 C.2       1 <0>         0.5217
     33 O7          5.7651    2.1650   -0.3887 O.2       1 <0>        -0.5230
     34 N4          3.5838    2.1285   -0.0211 N.am      1 <0>        -0.6632
     35 H1         -0.9598    1.9034    0.0259 H         1 <0>         0.1325
     36 H2          1.1510    3.1676    0.0076 H         1 <0>         0.1311
     37 H3         -0.9262   -0.5561    0.0078 H         1 <0>         0.1299
     38 H4         -0.5866   -2.4270    0.8849 H         1 <0>         0.0697
     39 H5         -0.6040   -2.4168   -0.8949 H         1 <0>         0.0731
     40 H6          0.8127   -4.4916   -0.8724 H         1 <0>         0.1094
     41 H7         -1.7919   -4.6623    0.7100 H         1 <0>         0.0825
     42 H8         -1.6557   -4.6299   -1.0644 H         1 <0>         0.0466
     43 H9         -0.3225   -6.6545   -0.8902 H         1 <0>         0.3485
     44 H10        -2.8655   -6.8478    0.5877 H         1 <0>         0.0835
     45 H11        -2.7293   -6.8154   -1.1868 H         1 <0>         0.0438
     46 H12        -1.3360   -8.8654   -1.1173 H         1 <0>         0.0838
     47 H13        -1.4722   -8.8978    0.6571 H         1 <0>         0.0788
     48 H14        -4.0788   -8.8578   -0.2169 H         1 <0>         0.4234
     49 H15        -0.5237  -11.6456   -0.3278 H         1 <0>         0.1623
     50 H16         0.5741  -12.8681    1.5056 H         1 <0>         0.1595
     51 H17        -4.2908  -12.1064    1.6180 H         1 <0>         0.1724
     52 H18        -2.9714  -15.6666    3.2324 H         1 <0>         0.4169
     53 H19        -3.9513  -15.7513    4.5946 H         1 <0>         0.4261
     54 H20         0.3265   -4.4085    1.9887 H         1 <0>         0.3750
     55 H21         4.0807   -0.8259    0.9854 H         1 <0>         0.0819
     56 H22         3.5853   -1.6867   -0.4914 H         1 <0>         0.0969
     57 H23         5.7341   -0.3229   -0.6916 H         1 <0>         0.1113
     58 H24         4.4852    0.0417   -1.9040 H         1 <0>         0.1042
     59 H25         3.5918    3.0597    0.2506 H         1 <0>         0.4134
@<TRIPOS>BOND
     1    1    6 ar
     2    1    2 ar
     3    1   35 1
     4    2    3 ar
     5    2   36 1
     6    3   34 1
     7    3    4 ar
     8    4    5 ar
     9    4   30 1
    10    5    6 ar
    11    5    7 1
    12    6   37 1
    13    7    8 1
    14    8    9 1
    15    8   38 1
    16    8   39 1
    17    9   10 1
    18    9   29 1
    19    9   40 1
    20   10   11 1
    21   10   41 1
    22   10   42 1
    23   11   12 1
    24   11   43 1
    25   12   13 1
    26   12   44 1
    27   12   45 1
    28   13   14 1
    29   13   46 1
    30   13   47 1
    31   14   15 1
    32   14   48 1
    33   15   16 2
    34   15   17 2
    35   15   18 1
    36   18   23 ar
    37   18   19 ar
    38   19   20 ar
    39   19   49 1
    40   20   21 ar
    41   20   50 1
    42   21   22 ar
    43   21   28 1
    44   22   23 ar
    45   22   24 1
    46   23   51 1
    47   24   25 2
    48   24   26 2
    49   24   27 1
    50   27   52 1
    51   27   53 1
    52   29   54 1
    53   30   31 1
    54   30   55 1
    55   30   56 1
    56   31   32 1
    57   31   57 1
    58   31   58 1
    59   32   33 2
    60   32   34 am
    61   34   59 1
@<TRIPOS>MOLECULE
CHEMBL290313__2
   60    62     0     0     0
SMALL
USER_CHARGES

@<TRIPOS>ATOM
      1 C1         -0.0167    1.3775    0.0096 C.ar      1 <0>        -0.0461
      2 C2          1.1686    2.0877    0.0021 C.ar      1 <0>        -0.1793
      3 C3          2.3824    1.4132   -0.0129 C.ar      1 <0>         0.2050
      4 C4          2.4028    0.0254   -0.0203 C.ar      1 <0>        -0.1523
      5 C5          1.2127   -0.6836   -0.0127 C.ar      1 <0>         0.1552
      6 C6          0.0021   -0.0041    0.0020 C.ar      1 <0>        -0.2305
      7 O1          1.2301   -2.0424   -0.0207 O.3       1 <0>        -0.2970
      8 C7         -0.0346   -2.7076   -0.0121 C.3       1 <0>         0.0293
      9 C8          0.1854   -4.2216   -0.0229 C.3       1 <0>         0.0853
     10 C9         -1.1621   -4.9337    0.1119 C.3       1 <0>        -0.0419
     11 N1         -0.9418   -6.3819    0.2219 N.4       1 <0>        -0.5025
     12 C10        -2.2355   -7.0656    0.3514 C.3       1 <0>        -0.0175
     13 C11        -2.0060   -8.5740    0.4659 C.3       1 <0>         0.0860
     14 N2         -3.2963   -9.2558    0.5950 N.pl3     1 <0>        -1.1146
     15 S1         -3.3943  -10.8929    0.3655 S.o2      1 <0>         2.6974
     16 O2         -4.7515  -11.2530    0.5831 O.2       1 <0>        -0.9242
     17 O3         -2.7174  -11.1736   -0.8520 O.2       1 <0>        -0.9350
     18 C12        -2.4589  -11.6558    1.6491 C.ar      1 <0>        -0.7077
     19 C13        -1.1127  -11.9117    1.4647 C.ar      1 <0>         0.0400
     20 C14        -0.3787  -12.5104    2.4709 C.ar      1 <0>        -0.1437
     21 C15        -0.9911  -12.8535    3.6634 C.ar      1 <0>         0.1007
     22 C16        -2.3379  -12.5968    3.8475 C.ar      1 <0>        -0.6913
     23 C17        -3.0699  -11.9931    2.8422 C.ar      1 <0>         0.0960
     24 S2         -3.1186  -13.0333    5.3656 S.o2      1 <0>         2.6963
     25 O4         -2.2923  -12.5305    6.4065 O.2       1 <0>        -0.9372
     26 O5         -4.4869  -12.6718    5.2372 O.2       1 <0>        -0.9488
     27 N3         -3.0743  -14.6846    5.4819 N.pl3     1 <0>        -1.2429
     28 Cl1        -0.0698  -13.6062    4.9276 Cl        1 <0>        -0.0036
     29 O6          0.8053   -4.6041   -1.2523 O.3       1 <0>        -0.5423
     30 C18         3.7199   -0.7056   -0.0361 C.3       1 <0>        -0.0674
     31 C19         4.7397    0.0961   -0.8456 C.3       1 <0>        -0.1397
     32 C20         4.7292    1.5343   -0.4022 C.2       1 <0>         0.5196
     33 O7          5.7651    2.1650   -0.3887 O.2       1 <0>        -0.5131
     34 N4          3.5838    2.1285   -0.0211 N.am      1 <0>        -0.6645
     35 H1         -0.9598    1.9034    0.0259 H         1 <0>         0.1359
     36 H2          1.1510    3.1676    0.0076 H         1 <0>         0.1357
     37 H3         -0.9262   -0.5561    0.0078 H         1 <0>         0.1278
     38 H4         -0.5866   -2.4270    0.8849 H         1 <0>         0.0837
     39 H5         -0.6040   -2.4168   -0.8949 H         1 <0>         0.0795
     40 H6          0.8291   -4.5012    0.8111 H         1 <0>         0.1365
     41 H7         -1.6747   -4.5754    1.0046 H         1 <0>         0.1496
     42 H8         -1.7729   -4.7248   -0.7663 H         1 <0>         0.1440
     43 H9         -0.4673   -6.7137   -0.6045 H         1 <0>         0.4379
     44 H10        -2.7481   -6.7073    1.2441 H         1 <0>         0.1448
     45 H11        -2.8464   -6.8567   -0.5269 H         1 <0>         0.1463
     46 H12        -1.4934   -8.9323   -0.4268 H         1 <0>         0.1079
     47 H13        -1.3952   -8.7829    1.3442 H         1 <0>         0.0912
     48 H14        -4.0931   -8.7483    0.8149 H         1 <0>         0.4304
     49 H15        -0.6348  -11.6439    0.5339 H         1 <0>         0.1607
     50 H16         0.6726  -12.7109    2.3264 H         1 <0>         0.1613
     51 H17        -4.1205  -11.7890    2.9873 H         1 <0>         0.1742
     52 H18        -2.6647  -15.2097    4.7766 H         1 <0>         0.4175
     53 H19        -3.4579  -15.1268    6.2553 H         1 <0>         0.4292
     54 H20         0.2871   -4.3855   -2.0389 H         1 <0>         0.3919
     55 H21         4.0807   -0.8259    0.9854 H         1 <0>         0.0822
     56 H22         3.5853   -1.6867   -0.4914 H         1 <0>         0.0951
     57 H23         5.7341   -0.3229   -0.6916 H         1 <0>         0.1133
     58 H24         4.4852    0.0417   -1.9040 H         1 <0>         0.1055
     59 H25         3.5918    3.0597    0.2506 H         1 <0>         0.4165
     60 H26        -0.3763   -6.5753    1.0349 H         1 <0>         0.4336
@<TRIPOS>BOND
     1    1    6 ar
     2    1    2 ar
     3    1   35 1
     4    2    3 ar
     5    2   36 1
     6    3   34 1
     7    3    4 ar
     8    4    5 ar
     9    4   30 1
    10    5    6 ar
    11    5    7 1
    12    6   37 1
    13    7    8 1
    14    8    9 1
    15    8   38 1
    16    8   39 1
    17    9   10 1
    18    9   29 1
    19    9   40 1
    20   10   11 1
    21   10   41 1
    22   10   42 1
    23   11   12 1
    24   11   43 1
    25   11   60 1
    26   12   13 1
    27   12   44 1
    28   12   45 1
    29   13   14 1
    30   13   46 1
    31   13   47 1
    32   14   15 1
    33   14   48 1
    34   15   16 2
    35   15   17 2
    36   15   18 1
    37   18   23 ar
    38   18   19 ar
    39   19   20 ar
    40   19   49 1
    41   20   21 ar
    42   20   50 1
    43   21   22 ar
    44   21   28 1
    45   22   23 ar
    46   22   24 1
    47   23   51 1
    48   24   25 2
    49   24   26 2
    50   24   27 1
    51   27   52 1
    52   27   53 1
    53   29   54 1
    54   30   31 1
    55   30   55 1
    56   30   56 1
    57   31   32 1
    58   31   57 1
    59   31   58 1
    60   32   33 2
    61   32   34 am
    62   34   59 1
@<TRIPOS>MOLECULE
CHEMBL290313__3
   59    61     0     0     0
SMALL
USER_CHARGES

@<TRIPOS>ATOM
      1 C1         -0.0167    1.3775    0.0096 C.ar      1 <0>        -0.0478
      2 C2          1.1686    2.0877    0.0021 C.ar      1 <0>        -0.1877
      3 C3          2.3824    1.4132   -0.0129 C.ar      1 <0>         0.1984
      4 C4          2.4028    0.0254   -0.0203 C.ar      1 <0>        -0.1567
      5 C5          1.2127   -0.6836   -0.0127 C.ar      1 <0>         0.1650
      6 C6          0.0021   -0.0041    0.0020 C.ar      1 <0>        -0.2304
      7 O1          1.2301   -2.0424   -0.0207 O.3       1 <0>        -0.2969
      8 C7         -0.0346   -2.7076   -0.0121 C.3       1 <0>         0.0282
      9 C8          0.1854   -4.2216   -0.0229 C.3       1 <0>         0.1111
     10 C9         -1.1621   -4.9337    0.1119 C.3       1 <0>         0.0321
     11 N1         -0.9418   -6.3819    0.2219 N.3       1 <0>        -0.6823
     12 C10        -2.2166   -7.0999    0.3532 C.3       1 <0>         0.0520
     13 C11        -1.9469   -8.6018    0.4650 C.3       1 <0>         0.1121
     14 N2         -3.2183   -9.3178    0.5959 N.pl3     1 <0>        -1.1143
     15 S1         -3.2733  -10.9566    0.3642 S.o2      1 <0>         2.6985
     16 O2         -4.6201  -11.3529    0.5842 O.2       1 <0>        -0.9434
     17 O3         -2.5920  -11.2174   -0.8552 O.2       1 <0>        -0.9438
     18 C12        -2.3152  -11.6963    1.6446 C.ar      1 <0>        -0.6996
     19 C13        -0.9631  -11.9161    1.4568 C.ar      1 <0>         0.0483
     20 C14        -0.2112  -12.4966    2.4604 C.ar      1 <0>        -0.1435
     21 C15        -0.8116  -12.8575    3.6538 C.ar      1 <0>         0.0972
     22 C16        -2.1642  -12.6369    3.8412 C.ar      1 <0>        -0.6936
     23 C17        -2.9143  -12.0514    2.8385 C.ar      1 <0>         0.0947
     24 S2         -2.9297  -13.0961    5.3604 S.o2      1 <0>         2.6983
     25 O4         -2.1146  -12.5731    6.4003 O.2       1 <0>        -0.9395
     26 O5         -4.3073  -12.7709    5.2356 O.2       1 <0>        -0.9515
     27 N3         -2.8413  -14.7459    5.4741 N.pl3     1 <0>        -1.2445
     28 Cl1         0.1322  -13.5872    4.9148 Cl        1 <0>        -0.0152
     29 O6          0.8053   -4.6041   -1.2523 O.3       1 <0>        -0.5479
     30 C18         3.7199   -0.7056   -0.0361 C.3       1 <0>        -0.0685
     31 C19         4.7397    0.0961   -0.8456 C.3       1 <0>        -0.1386
     32 C20         4.7292    1.5343   -0.4022 C.2       1 <0>         0.5217
     33 O7          5.7651    2.1650   -0.3887 O.2       1 <0>        -0.5231
     34 N4          3.5838    2.1285   -0.0211 N.am      1 <0>        -0.6633
     35 H1         -0.9598    1.9034    0.0259 H         1 <0>         0.1325
     36 H2          1.1510    3.1676    0.0076 H         1 <0>         0.1311
     37 H3         -0.9262   -0.5561    0.0078 H         1 <0>         0.1299
     38 H4         -0.5866   -2.4270    0.8849 H         1 <0>         0.0755
     39 H5         -0.6040   -2.4168   -0.8949 H         1 <0>         0.0678
     40 H6          0.8291   -4.5012    0.8111 H         1 <0>         0.1217
     41 H7         -1.6747   -4.5754    1.0046 H         1 <0>         0.0881
     42 H8         -1.7729   -4.7248   -0.7663 H         1 <0>         0.0409
     43 H9         -0.4113   -6.7277   -0.5637 H         1 <0>         0.3538
     44 H10        -2.7365   -6.7566    1.2476 H         1 <0>         0.0838
     45 H11        -2.8348   -6.9060   -0.5234 H         1 <0>         0.0441
     46 H12        -1.4270   -8.9451   -0.4294 H         1 <0>         0.0842
     47 H13        -1.3288   -8.7957    1.3416 H         1 <0>         0.0784
     48 H14        -4.0279   -8.8320    0.8184 H         1 <0>         0.4234
     49 H15        -0.4946  -11.6344    0.5254 H         1 <0>         0.1624
     50 H16         0.8448  -12.6688    2.3133 H         1 <0>         0.1595
     51 H17        -3.9696  -11.8754    2.9863 H         1 <0>         0.1725
     52 H18        -2.4195  -15.2588    4.7671 H         1 <0>         0.4169
     53 H19        -3.2113  -15.1992    6.2477 H         1 <0>         0.4261
     54 H20         0.2871   -4.3855   -2.0389 H         1 <0>         0.3734
     55 H21         4.0807   -0.8259    0.9854 H         1 <0>         0.0811
     56 H22         3.5853   -1.6867   -0.4914 H         1 <0>         0.0983
     57 H23         5.7341   -0.3229   -0.6916 H         1 <0>         0.1112
     58 H24         4.4852    0.0417   -1.9040 H         1 <0>         0.1045
     59 H25         3.5918    3.0597    0.2506 H         1 <0>         0.4134
@<TRIPOS>BOND
     1    1    6 ar
     2    1    2 ar
     3    1   35 1
     4    2    3 ar
     5    2   36 1
     6    3   34 1
     7    3    4 ar
     8    4    5 ar
     9    4   30 1
    10    5    6 ar
    11    5    7 1
    12    6   37 1
    13    7    8 1
    14    8    9 1
    15    8   38 1
    16    8   39 1
    17    9   10 1
    18    9   29 1
    19    9   40 1
    20   10   11 1
    21   10   41 1
    22   10   42 1
    23   11   12 1
    24   11   43 1
    25   12   13 1
    26   12   44 1
    27   12   45 1
    28   13   14 1
    29   13   46 1
    30   13   47 1
    31   14   15 1
    32   14   48 1
    33   15   16 2
    34   15   17 2
    35   15   18 1
    36   18   23 ar
    37   18   19 ar
    38   19   20 ar
    39   19   49 1
    40   20   21 ar
    41   20   50 1
    42   21   22 ar
    43   21   28 1
    44   22   23 ar
    45   22   24 1
    46   23   51 1
    47   24   25 2
    48   24   26 2
    49   24   27 1
    50   27   52 1
    51   27   53 1
    52   29   54 1
    53   30   31 1
    54   30   55 1
    55   30   56 1
    56   31   32 1
    57   31   57 1
    58   31   58 1
    59   32   33 2
    60   32   34 am
    61   34   59 1
@<TRIPOS>MOLECULE
CHEMBL138276
   49    52     0     0     0
SMALL
USER_CHARGES

@<TRIPOS>ATOM
      1 C1          0.2499    1.3782    0.0253 C.3       1 <0>        -0.1680
      2 C2         -0.0498   -0.1220    0.0440 C.3       1 <0>         0.1108
      3 N1          0.5806   -0.7604   -1.1142 N.am      1 <0>        -0.6119
      4 C3          1.9461   -1.2809   -1.0106 C.3       1 <0>         0.0927
      5 C4          1.8992   -2.7697   -0.6612 C.3       1 <0>        -0.1743
      6 C5         -0.0957   -0.8688   -2.2749 C.2       1 <0>         0.5275
      7 O1         -1.1859   -0.3505   -2.3923 O.2       1 <0>        -0.5332
      8 C6          0.5027   -1.6342   -3.4270 C.3       1 <0>        -0.0724
      9 H1          0.8532   -2.6060   -3.0795 H         1 <0>         0.1187
     10 C7         -0.5524   -1.8272   -4.5222 C.3       1 <0>         0.0800
     11 N2          0.0833   -2.4849   -5.6678 N.3       1 <0>        -0.5490
     12 C8          1.1107   -1.6647   -6.2965 C.3       1 <0>         0.1374
     13 C9          1.9670   -2.5345   -7.2272 C.3       1 <0>        -0.0234
     14 C10         3.0988   -1.7091   -7.7811 C.2       1 <0>        -0.1682
     15 C11         3.8571   -1.7619   -8.8710 C.2       1 <0>         0.0576
     16 N3          4.7781   -0.7258   -8.8671 N.pl3     1 <0>        -0.5950
     17 H2          5.4349   -0.5665   -9.5629 H         1 <0>         0.4164
     18 C12         4.6304    0.0374   -7.7485 C.ar      1 <0>         0.1109
     19 C13         3.5770   -0.5476   -7.0402 C.ar      1 <0>        -0.1304
     20 C14         3.0557   -0.0841   -5.8142 C.ar      1 <0>        -0.0050
     21 C15         3.6704    1.0297   -5.2892 C.ar      1 <0>        -0.1285
     22 C16         4.7281    1.6227   -5.9753 C.ar      1 <0>        -0.0966
     23 C17         5.2286    1.1657   -7.1891 C.ar      1 <0>        -0.1209
     24 C18         1.9198   -0.8750   -5.3020 C.2       1 <0>        -0.0510
     25 C19         1.6541   -0.8580   -4.0076 C.2       1 <0>        -0.1372
     26 C20        -0.9199   -2.9167   -6.6502 C.3       1 <0>         0.0276
     27 H3          1.3279    1.5339    0.0667 H         1 <0>         0.0549
     28 H4         -0.1456    1.8163   -0.8911 H         1 <0>         0.0598
     29 H5         -0.2192    1.8532    0.8870 H         1 <0>         0.0662
     30 H6          0.3457   -0.5602    0.9603 H         1 <0>         0.0769
     31 H7         -1.1279   -0.2778    0.0026 H         1 <0>         0.0825
     32 H8          2.4591   -1.1471   -1.9630 H         1 <0>         0.0870
     33 H9          2.4824   -0.7412   -0.2301 H         1 <0>         0.0824
     34 H10         1.3862   -2.9035    0.2911 H         1 <0>         0.0596
     35 H11         1.3629   -3.3094   -1.4418 H         1 <0>         0.0604
     36 H12         2.9152   -3.1570   -0.5842 H         1 <0>         0.0701
     37 H13        -1.3625   -2.4511   -4.1446 H         1 <0>         0.0872
     38 H14        -0.9448   -0.8573   -4.8279 H         1 <0>         0.0500
     39 H15         0.5964   -0.9449   -6.9333 H         1 <0>         0.0449
     40 H16         2.3718   -3.3772   -6.6668 H         1 <0>         0.0843
     41 H17         1.3516   -2.9046   -8.0472 H         1 <0>         0.0769
     42 H18         3.7687   -2.5060   -9.6488 H         1 <0>         0.1697
     43 H19         3.3342    1.4425   -4.3496 H         1 <0>         0.1220
     44 H20         5.1892    2.4947   -5.5356 H         1 <0>         0.1225
     45 H21         6.0502    1.6659   -7.6803 H         1 <0>         0.1286
     46 H22         2.2782   -0.2715   -3.3496 H         1 <0>         0.1227
     47 H23        -1.4264   -2.0430   -7.0604 H         1 <0>         0.0289
     48 H24        -0.4284   -3.4630   -7.4553 H         1 <0>         0.0740
     49 H25        -1.6493   -3.5645   -6.1639 H         1 <0>         0.0738
@<TRIPOS>BOND
     1    1    2 1
     2    1   27 1
     3    1   28 1
     4    1   29 1
     5    2    3 1
     6    2   30 1
     7    2   31 1
     8    3    4 1
     9    3    6 am
    10    4    5 1
    11    4   32 1
    12    4   33 1
    13    5   34 1
    14    5   35 1
    15    5   36 1
    16    6    7 2
    17    6    8 1
    18    8    9 1
    19    8   25 1
    20    8   10 1
    21   10   11 1
    22   10   37 1
    23   10   38 1
    24   11   12 1
    25   11   26 1
    26   12   24 1
    27   12   13 1
    28   12   39 1
    29   13   14 1
    30   13   40 1
    31   13   41 1
    32   14   19 1
    33   14   15 2
    34   15   16 1
    35   15   42 1
    36   16   17 1
    37   16   18 1
    38   18   23 ar
    39   18   19 ar
    40   19   20 ar
    41   20   21 ar
    42   20   24 1
    43   21   22 ar
    44   21   43 1
    45   22   23 ar
    46   22   44 1
    47   23   45 1
    48   24   25 2
    49   25   46 1
    50   26   47 1
    51   26   48 1
    52   26   49 1
@<TRIPOS>MOLECULE
CHEMBL138276__1
   50    53     0     0     0
SMALL
USER_CHARGES

@<TRIPOS>ATOM
      1 C1         -1.7905   -1.4126   -2.0494 C.3       1 <0>        -0.1700
      2 C2         -2.3050   -0.2813   -1.1569 C.3       1 <0>         0.1067
      3 N1         -1.5134   -0.2326    0.0748 N.am      1 <0>        -0.5994
      4 C3         -0.2448    0.4997    0.1016 C.3       1 <0>         0.0911
      5 C4         -0.5165    1.9809    0.3721 C.3       1 <0>        -0.1749
      6 C5         -1.9521   -0.8613    1.1832 C.2       1 <0>         0.5297
      7 O1         -2.9640   -1.5286    1.1415 O.2       1 <0>        -0.5231
      8 C6         -1.1854   -0.7353    2.4744 C.3       1 <0>        -0.1017
      9 H1         -0.8212    0.2858    2.5878 H         1 <0>         0.1311
     10 C7         -2.0963   -1.0939    3.6543 C.3       1 <0>         0.0084
     11 N2         -1.3050   -1.0387    4.8857 N.4       1 <0>        -0.3782
     12 C8         -0.2774   -2.0706    4.9158 C.3       1 <0>         0.0700
     13 C9          0.7207   -1.7668    6.0420 C.3       1 <0>        -0.0394
     14 C10         1.8473   -2.7653    5.9968 C.2       1 <0>        -0.2012
     15 C11         2.7113   -3.2507    6.8821 C.2       1 <0>         0.0973
     16 N3          3.5611   -4.1625    6.2752 N.pl3     1 <0>        -0.5868
     17 H2          4.2723   -4.6424    6.7277 H         1 <0>         0.4250
     18 C12         3.2560   -4.2900    4.9537 C.ar      1 <0>         0.1110
     19 C13         2.1762   -3.4285    4.7406 C.ar      1 <0>        -0.1235
     20 C14         1.5073   -3.2396    3.5133 C.ar      1 <0>        -0.0322
     21 C15         1.9967   -3.9655    2.4512 C.ar      1 <0>        -0.0997
     22 C16         3.0785   -4.8227    2.6405 C.ar      1 <0>        -0.0997
     23 C17         3.7245   -5.0119    3.8568 C.ar      1 <0>        -0.0953
     24 C18         0.3763   -2.2939    3.5785 C.2       1 <0>        -0.0542
     25 C19        -0.0226   -1.6920    2.4706 C.2       1 <0>        -0.1351
     26 C20        -2.1987   -1.2197    6.0374 C.3       1 <0>        -0.0510
     27 H3         -2.3795   -1.4488   -2.9659 H         1 <0>         0.0741
     28 H4         -0.7443   -1.2329   -2.2969 H         1 <0>         0.0582
     29 H5         -1.8812   -2.3618   -1.5214 H         1 <0>         0.0593
     30 H6         -2.2144    0.6679   -1.6850 H         1 <0>         0.0839
     31 H7         -3.3513   -0.4610   -0.9095 H         1 <0>         0.0908
     32 H8          0.3906    0.0969    0.8904 H         1 <0>         0.0822
     33 H9          0.2573    0.3921   -0.8598 H         1 <0>         0.0907
     34 H10        -1.0185    2.0885    1.3336 H         1 <0>         0.0541
     35 H11         0.4274    2.5257    0.3921 H         1 <0>         0.0761
     36 H12        -1.1519    2.3837   -0.4166 H         1 <0>         0.0671
     37 H13        -2.9169   -0.3789    3.7140 H         1 <0>         0.1457
     38 H14        -2.4926   -2.1001    3.5184 H         1 <0>         0.1464
     39 H15        -0.7731   -3.0026    5.1875 H         1 <0>         0.1406
     40 H16         1.1208   -0.7613    5.9114 H         1 <0>         0.0937
     41 H17         0.2139   -1.8340    7.0046 H         1 <0>         0.1009
     42 H18         2.7467   -2.9740    7.9255 H         1 <0>         0.1765
     43 H19         1.5437   -3.8714    1.4754 H         1 <0>         0.1281
     44 H20         3.4387   -5.3768    1.7863 H         1 <0>         0.1319
     45 H21         4.5582   -5.6923    3.9486 H         1 <0>         0.1379
     46 H22         0.4952   -1.8912    1.5440 H         1 <0>         0.1470
     47 H23        -2.6958   -2.1869    5.9631 H         1 <0>         0.1267
     48 H24        -1.6172   -1.1799    6.9585 H         1 <0>         0.1295
     49 H25        -2.9464   -0.4266    6.0453 H         1 <0>         0.1313
     50 H26        -0.8639   -0.1336    4.9527 H         1 <0>         0.4225
@<TRIPOS>BOND
     1    1    2 1
     2    1   27 1
     3    1   28 1
     4    1   29 1
     5    2    3 1
     6    2   30 1
     7    2   31 1
     8    3    4 1
     9    3    6 am
    10    4    5 1
    11    4   32 1
    12    4   33 1
    13    5   34 1
    14    5   35 1
    15    5   36 1
    16    6    7 2
    17    6    8 1
    18    8    9 1
    19    8   25 1
    20    8   10 1
    21   10   11 1
    22   10   37 1
    23   10   38 1
    24   11   12 1
    25   11   26 1
    26   11   50 1
    27   12   24 1
    28   12   13 1
    29   12   39 1
    30   13   14 1
    31   13   40 1
    32   13   41 1
    33   14   19 1
    34   14   15 2
    35   15   16 1
    36   15   42 1
    37   16   17 1
    38   16   18 1
    39   18   23 ar
    40   18   19 ar
    41   19   20 ar
    42   20   21 ar
    43   20   24 1
    44   21   22 ar
    45   21   43 1
    46   22   23 ar
    47   22   44 1
    48   23   45 1
    49   24   25 2
    50   25   46 1
    51   26   47 1
    52   26   48 1
    53   26   49 1
@<TRIPOS>MOLECULE
CHEMBL138276__2
   49    52     0     0     0
SMALL
USER_CHARGES

@<TRIPOS>ATOM
      1 C1          0.2574    1.3883    0.0334 C.3       1 <0>        -0.1681
      2 C2         -0.0436   -0.1116    0.0551 C.3       1 <0>         0.1110
      3 N1          0.5840   -0.7524   -1.1032 N.am      1 <0>        -0.6122
      4 C3          1.9493   -1.2739   -1.0014 C.3       1 <0>         0.0932
      5 C4          1.9018   -2.7624   -0.6506 C.3       1 <0>        -0.1745
      6 C5         -0.0946   -0.8621   -2.2625 C.2       1 <0>         0.5280
      7 O1         -1.1841   -0.3423   -2.3789 O.2       1 <0>        -0.5330
      8 C6          0.5005   -1.6308   -3.4141 C.3       1 <0>        -0.0729
      9 H1          0.8464   -2.6044   -3.0671 H         1 <0>         0.1192
     10 C7         -0.5536   -1.8167   -4.5125 C.3       1 <0>         0.0753
     11 N2          0.0701   -2.5137   -5.6412 N.3       1 <0>        -0.5403
     12 C8          1.1495   -1.7633   -6.2590 C.3       1 <0>         0.1310
     13 C9          0.6413   -0.9795   -7.4750 C.3       1 <0>        -0.0600
     14 C10         1.7819   -0.1800   -8.0526 C.2       1 <0>        -0.1672
     15 C11         2.0685    0.3201   -9.2495 C.2       1 <0>         0.0578
     16 N3          3.2801    0.9931   -9.2122 N.pl3     1 <0>        -0.5949
     17 H2          3.6891    1.4389   -9.9704 H         1 <0>         0.4164
     18 C12         3.8151    0.9400   -7.9605 C.ar      1 <0>         0.1112
     19 C13         2.9011    0.2051   -7.2003 C.ar      1 <0>        -0.1312
     20 C14         3.0437   -0.1157   -5.8331 C.ar      1 <0>        -0.0041
     21 C15         4.1826    0.3585   -5.2252 C.ar      1 <0>        -0.1278
     22 C16         5.1031    1.0986   -5.9645 C.ar      1 <0>        -0.0963
     23 C17         4.9589    1.4049   -7.3127 C.ar      1 <0>        -0.1214
     24 C18         1.9320   -0.9193   -5.2890 C.2       1 <0>        -0.0517
     25 C19         1.6550   -0.8592   -3.9984 C.2       1 <0>        -0.1376
     26 C20        -0.9351   -2.9071   -6.6375 C.3       1 <0>         0.0237
     27 H3          1.3357    1.5432    0.0725 H         1 <0>         0.0548
     28 H4         -0.1395    1.8253   -0.8829 H         1 <0>         0.0597
     29 H5         -0.2095    1.8651    0.8953 H         1 <0>         0.0661
     30 H6          0.3533   -0.5486    0.9715 H         1 <0>         0.0770
     31 H7         -1.1218   -0.2664    0.0161 H         1 <0>         0.0824
     32 H8          2.4609   -1.1414   -1.9547 H         1 <0>         0.0864
     33 H9          2.4873   -0.7340   -0.2222 H         1 <0>         0.0824
     34 H10         1.3902   -2.8949    0.3027 H         1 <0>         0.0596
     35 H11         1.3638   -3.3023   -1.4298 H         1 <0>         0.0604
     36 H12         2.9176   -3.1505   -0.5749 H         1 <0>         0.0702
     37 H13        -1.3826   -2.4108   -4.1280 H         1 <0>         0.0867
     38 H14        -0.9177   -0.8427   -4.8395 H         1 <0>         0.0502
     39 H15         1.8466   -2.5014   -6.6557 H         1 <0>         0.0869
     40 H16         0.2654   -1.6743   -8.2260 H         1 <0>         0.0838
     41 H17        -0.1578   -0.3052   -7.1667 H         1 <0>         0.0717
     42 H18         1.4464    0.2175  -10.1263 H         1 <0>         0.1690
     43 H19         4.3630    0.1577   -4.1795 H         1 <0>         0.1232
     44 H20         5.9860    1.4579   -5.4568 H         1 <0>         0.1228
     45 H21         5.7052    1.9816   -7.8389 H         1 <0>         0.1285
     46 H22         2.2652   -0.2460   -3.3518 H         1 <0>         0.1234
     47 H23        -1.3929   -2.0144   -7.0637 H         1 <0>         0.0357
     48 H24        -0.4561   -3.4831   -7.4292 H         1 <0>         0.0732
     49 H25        -1.7024   -3.5156   -6.1588 H         1 <0>         0.0721
@<TRIPOS>BOND
     1    1    2 1
     2    1   27 1
     3    1   28 1
     4    1   29 1
     5    2    3 1
     6    2   30 1
     7    2   31 1
     8    3    4 1
     9    3    6 am
    10    4    5 1
    11    4   32 1
    12    4   33 1
    13    5   34 1
    14    5   35 1
    15    5   36 1
    16    6    7 2
    17    6    8 1
    18    8    9 1
    19    8   25 1
    20    8   10 1
    21   10   11 1
    22   10   37 1
    23   10   38 1
    24   11   12 1
    25   11   26 1
    26   12   24 1
    27   12   13 1
    28   12   39 1
    29   13   14 1
    30   13   40 1
    31   13   41 1
    32   14   19 1
    33   14   15 2
    34   15   16 1
    35   15   42 1
    36   16   17 1
    37   16   18 1
    38   18   23 ar
    39   18   19 ar
    40   19   20 ar
    41   20   21 ar
    42   20   24 1
    43   21   22 ar
    44   21   43 1
    45   22   23 ar
    46   22   44 1
    47   23   45 1
    48   24   25 2
    49   25   46 1
    50   26   47 1
    51   26   48 1
    52   26   49 1
@<TRIPOS>MOLECULE
CHEMBL138276__3
   50    53     0     0     0
SMALL
USER_CHARGES

@<TRIPOS>ATOM
      1 C1         -1.7817   -1.3859   -2.0527 C.3       1 <0>        -0.1702
      2 C2         -2.3103   -0.2671   -1.1527 C.3       1 <0>         0.1069
      3 N1         -1.5224   -0.2198    0.0815 N.am      1 <0>        -0.5998
      4 C3         -0.2626    0.5269    0.1181 C.3       1 <0>         0.0917
      5 C4         -0.5522    2.0022    0.4019 C.3       1 <0>        -0.1750
      6 C5         -1.9566   -0.8633    1.1832 C.2       1 <0>         0.5300
      7 O1         -2.9603   -1.5422    1.1330 O.2       1 <0>        -0.5226
      8 C6         -1.1949   -0.7392    2.4776 C.3       1 <0>        -0.1016
      9 H1         -0.8303    0.2813    2.5946 H         1 <0>         0.1312
     10 C7         -2.1091   -1.1018    3.6546 C.3       1 <0>         0.0049
     11 N2         -1.3327   -1.0111    4.8935 N.4       1 <0>        -0.3734
     12 C8         -0.2556   -1.9821    4.9400 C.3       1 <0>         0.0664
     13 C9         -0.6886   -3.2474    5.6897 C.3       1 <0>        -0.0406
     14 C10         0.4524   -4.2335    5.6824 C.2       1 <0>        -0.2020
     15 C11         0.8248   -5.2464    6.4572 C.2       1 <0>         0.0963
     16 N3          1.9825   -5.8285    5.9644 N.pl3     1 <0>        -0.5871
     17 H2          2.4359   -6.5856    6.3672 H         1 <0>         0.4249
     18 C12         2.3932   -5.1878    4.8346 C.ar      1 <0>         0.1115
     19 C13         1.4559   -4.1723    4.6258 C.ar      1 <0>        -0.1253
     20 C14         1.4827   -3.2380    3.5679 C.ar      1 <0>        -0.0316
     21 C15         2.5245   -3.3724    2.6802 C.ar      1 <0>        -0.1007
     22 C16         3.4654   -4.3829    2.8673 C.ar      1 <0>        -0.0996
     23 C17         3.4362   -5.2954    3.9156 C.ar      1 <0>        -0.0963
     24 C18         0.3742   -2.2645    3.6034 C.2       1 <0>        -0.0543
     25 C19        -0.0329   -1.6993    2.4797 C.2       1 <0>        -0.1321
     26 C20        -2.2289   -1.2387    6.0350 C.3       1 <0>        -0.0561
     27 H3         -2.3679   -1.4211   -2.9709 H         1 <0>         0.0740
     28 H4         -0.7368   -1.1934   -2.2958 H         1 <0>         0.0582
     29 H5         -1.8639   -2.3401   -1.5323 H         1 <0>         0.0592
     30 H6         -2.2281    0.6871   -1.6730 H         1 <0>         0.0840
     31 H7         -3.3553   -0.4596   -0.9095 H         1 <0>         0.0907
     32 H8          0.3758    0.1242    0.9044 H         1 <0>         0.0817
     33 H9          0.2428    0.4343   -0.8433 H         1 <0>         0.0907
     34 H10        -1.0575    2.0949    1.3632 H         1 <0>         0.0539
     35 H11         0.3852    2.5578    0.4291 H         1 <0>         0.0762
     36 H12        -1.1906    2.4050   -0.3845 H         1 <0>         0.0672
     37 H13        -2.9466   -0.4054    3.6956 H         1 <0>         0.1450
     38 H14        -2.4811   -2.1187    3.5294 H         1 <0>         0.1454
     39 H15         0.5259   -1.5357    5.5549 H         1 <0>         0.1395
     40 H16        -0.9446   -2.9928    6.7181 H         1 <0>         0.1044
     41 H17        -1.5543   -3.6871    5.1943 H         1 <0>         0.0933
     42 H18         0.3009   -5.5697    7.3446 H         1 <0>         0.1765
     43 H19         2.6126   -2.6979    1.8414 H         1 <0>         0.1285
     44 H20         4.2698   -4.4626    2.1510 H         1 <0>         0.1319
     45 H21         4.1934   -6.0592    4.0146 H         1 <0>         0.1377
     46 H22         0.4714   -1.9288    1.5526 H         1 <0>         0.1475
     47 H23        -2.6773   -2.2288    5.9531 H         1 <0>         0.1303
     48 H24        -1.6599   -1.1731    6.9623 H         1 <0>         0.1307
     49 H25        -3.0144   -0.4830    6.0365 H         1 <0>         0.1300
     50 H26        -0.9410   -0.0842    4.9669 H         1 <0>         0.4278
@<TRIPOS>BOND
     1    1    2 1
     2    1   27 1
     3    1   28 1
     4    1   29 1
     5    2    3 1
     6    2   30 1
     7    2   31 1
     8    3    4 1
     9    3    6 am
    10    4    5 1
    11    4   32 1
    12    4   33 1
    13    5   34 1
    14    5   35 1
    15    5   36 1
    16    6    7 2
    17    6    8 1
    18    8    9 1
    19    8   25 1
    20    8   10 1
    21   10   11 1
    22   10   37 1
    23   10   38 1
    24   11   12 1
    25   11   26 1
    26   11   50 1
    27   12   24 1
    28   12   13 1
    29   12   39 1
    30   13   14 1
    31   13   40 1
    32   13   41 1
    33   14   19 1
    34   14   15 2
    35   15   16 1
    36   15   42 1
    37   16   17 1
    38   16   18 1
    39   18   23 ar
    40   18   19 ar
    41   19   20 ar
    42   20   21 ar
    43   20   24 1
    44   21   22 ar
    45   21   43 1
    46   22   23 ar
    47   22   44 1
    48   23   45 1
    49   24   25 2
    50   25   46 1
    51   26   47 1
    52   26   48 1
    53   26   49 1
@<TRIPOS>MOLECULE
CHEMBL459646
   64    66     0     0     0
SMALL
USER_CHARGES

@<TRIPOS>ATOM
      1 C1         -2.8406    1.4004    0.7857 C.3       1 <0>        -0.1365
      2 C2         -2.8692   -0.0841    0.4167 C.3       1 <0>        -0.0780
      3 C3         -3.8767   -0.3097   -0.7125 C.3       1 <0>        -0.1475
      4 C4         -1.4780   -0.5215   -0.0461 C.3       1 <0>        -0.0733
      5 C5         -1.4685   -2.0118   -0.2698 C.ar      1 <0>        -0.0410
      6 C6         -1.5354   -2.5179   -1.5479 C.ar      1 <0>        -0.1185
      7 C7         -1.5264   -3.8989   -1.7510 C.ar      1 <0>        -0.0799
      8 C8         -1.4496   -4.7660   -0.6597 C.ar      1 <0>        -0.1277
      9 C9         -1.3830   -4.2670    0.6097 C.ar      1 <0>        -0.0851
     10 C10        -1.3858   -2.8840    0.8208 C.ar      1 <0>        -0.1181
     11 C11        -1.3079   -2.3469    2.1905 C.2       1 <0>         0.5160
     12 O1         -1.3430   -3.1068    3.1484 O.co2     1 <0>        -0.6856
     13 O2         -1.2080   -1.1410    2.3698 O.co2     1 <0>        -0.6659
     14 C12        -1.5989   -4.4451   -3.1265 C.ar      1 <0>        -0.0293
     15 C13        -1.6704   -3.5807   -4.2189 C.ar      1 <0>        -0.0807
     16 C14        -1.7378   -4.0921   -5.4973 C.ar      1 <0>        -0.1325
     17 C15        -1.7345   -5.4663   -5.6982 C.ar      1 <0>         0.0914
     18 C16        -1.6638   -6.3297   -4.6126 C.ar      1 <0>        -0.1946
     19 C17        -1.5900   -5.8248   -3.3321 C.ar      1 <0>        -0.0821
     20 O3         -1.8010   -5.9670   -6.9590 O.3       1 <0>        -0.3302
     21 C18        -1.7934   -7.3896   -7.0934 C.3       1 <0>         0.0249
     22 C19        -1.8739   -7.7624   -8.5751 C.3       1 <0>         0.0015
     23 N1         -0.6607   -7.3007   -9.2628 N.4       1 <0>        -0.5065
     24 C20        -0.7379   -7.6586  -10.6854 C.3       1 <0>        -0.0437
     25 C21         0.5256   -7.1777  -11.4016 C.3       1 <0>         0.1506
     26 H1          1.3994   -7.6518  -10.9546 H         1 <0>         0.1289
     27 C22         0.4464   -7.5448  -12.8611 C.ar      1 <0>        -0.2649
     28 C23         1.0281   -8.7189  -13.3216 C.ar      1 <0>        -0.0108
     29 C24         0.9326   -9.0187  -14.6683 C.ar      1 <0>        -0.2354
     30 C25         0.2609   -8.1390  -15.5114 C.ar      1 <0>         0.4232
     31 N2         -0.2805   -7.0292  -15.0338 N.ar      1 <0>        -0.5401
     32 C26        -0.2099   -6.7206  -13.7526 C.ar      1 <0>         0.1753
     33 N3          0.1578   -8.4276  -16.8672 N.pl3     1 <0>        -0.8406
     34 O4          0.6354   -5.7587  -11.2727 O.3       1 <0>        -0.5473
     35 H2         -3.8318    1.7120    1.1155 H         1 <0>         0.0437
     36 H3         -2.1229    1.5611    1.5902 H         1 <0>         0.0620
     37 H4         -2.5469    1.9858   -0.0855 H         1 <0>         0.0411
     38 H5         -3.1630   -0.6695    1.2880 H         1 <0>         0.0820
     39 H6         -3.8380   -1.3513   -1.0313 H         1 <0>         0.0497
     40 H7         -4.8799   -0.0757   -0.3564 H         1 <0>         0.0451
     41 H8         -3.6298    0.3373   -1.5542 H         1 <0>         0.0442
     42 H9         -1.2283   -0.0127   -0.9772 H         1 <0>         0.0409
     43 H10        -0.7436   -0.2639    0.7170 H         1 <0>         0.1135
     44 H11        -1.5952   -1.8475   -2.3925 H         1 <0>         0.1154
     45 H12        -1.4431   -5.8340   -0.8198 H         1 <0>         0.1131
     46 H13        -1.3241   -4.9409    1.4516 H         1 <0>         0.1282
     47 H14        -1.6733   -2.5120   -4.0634 H         1 <0>         0.1384
     48 H15        -1.7935   -3.4233   -6.3435 H         1 <0>         0.1309
     49 H16        -1.6622   -7.3979   -4.7722 H         1 <0>         0.1246
     50 H17        -1.5302   -6.4966   -2.4886 H         1 <0>         0.1337
     51 H18        -0.8734   -7.7899   -6.6675 H         1 <0>         0.0861
     52 H19        -2.6504   -7.8089   -6.5662 H         1 <0>         0.1089
     53 H20        -1.9576   -8.8448   -8.6734 H         1 <0>         0.1494
     54 H21        -2.7477   -7.2883   -9.0221 H         1 <0>         0.1420
     55 H22        -0.5832   -6.2988   -9.1718 H         1 <0>         0.4399
     56 H23        -0.8217   -8.7409  -10.7837 H         1 <0>         0.1429
     57 H24        -1.6117   -7.1845  -11.1324 H         1 <0>         0.1363
     58 H25         1.5436   -9.3827  -12.6433 H         1 <0>         0.1385
     59 H26         1.3738   -9.9233  -15.0603 H         1 <0>         0.1393
     60 H27        -0.6678   -5.8090  -13.3979 H         1 <0>         0.1530
     61 H28         0.5532   -9.2394  -17.2217 H         1 <0>         0.4142
     62 H29        -0.3095   -7.8173  -17.4588 H         1 <0>         0.4103
     63 H30        -0.1095   -5.2708  -11.6497 H         1 <0>         0.3881
     64 H31         0.1482   -7.7396   -8.8490 H         1 <0>         0.4285
@<TRIPOS>BOND
     1    1    2 1
     2    1   35 1
     3    1   36 1
     4    1   37 1
     5    2    3 1
     6    2    4 1
     7    2   38 1
     8    3   39 1
     9    3   40 1
    10    3   41 1
    11    4    5 1
    12    4   42 1
    13    4   43 1
    14    5   10 ar
    15    5    6 ar
    16    6    7 ar
    17    6   44 1
    18    7    8 ar
    19    7   14 1
    20    8    9 ar
    21    8   45 1
    22    9   10 ar
    23    9   46 1
    24   10   11 1
    25   11   12 2
    26   11   13 1
    27   14   19 ar
    28   14   15 ar
    29   15   16 ar
    30   15   47 1
    31   16   17 ar
    32   16   48 1
    33   17   18 ar
    34   17   20 1
    35   18   19 ar
    36   18   49 1
    37   19   50 1
    38   20   21 1
    39   21   22 1
    40   21   51 1
    41   21   52 1
    42   22   23 1
    43   22   53 1
    44   22   54 1
    45   23   24 1
    46   23   55 1
    47   23   64 1
    48   24   25 1
    49   24   56 1
    50   24   57 1
    51   25   26 1
    52   25   27 1
    53   25   34 1
    54   27   32 ar
    55   27   28 ar
    56   28   29 ar
    57   28   58 1
    58   29   30 ar
    59   29   59 1
    60   30   31 ar
    61   30   33 1
    62   31   32 ar
    63   32   60 1
    64   33   61 1
    65   33   62 1
    66   34   63 1
@<TRIPOS>MOLECULE
CHEMBL459646__1
   64    66     0     0     0
SMALL
USER_CHARGES

@<TRIPOS>ATOM
      1 C1          0.0744    1.4907   -0.0785 C.3       1 <0>        -0.1466
      2 C2          0.0413   -0.0386   -0.0466 C.3       1 <0>        -0.0786
      3 C3          0.7881   -0.5391    1.1914 C.3       1 <0>        -0.1358
      4 C4         -1.4112   -0.5163    0.0061 C.3       1 <0>        -0.0711
      5 C5         -2.1140   -0.1289   -1.2694 C.ar      1 <0>        -0.0411
      6 C6         -2.9616    0.9553   -1.2881 C.ar      1 <0>        -0.1231
      7 C7         -3.6108    1.3109   -2.4716 C.ar      1 <0>        -0.0669
      8 C8         -3.4011    0.5683   -3.6348 C.ar      1 <0>        -0.1320
      9 C9         -2.5608   -0.5081   -3.6197 C.ar      1 <0>        -0.0841
     10 C10        -1.9022   -0.8671   -2.4388 C.ar      1 <0>        -0.1259
     11 C11        -0.9912   -2.0249   -2.4252 C.2       1 <0>         0.5176
     12 O1         -0.7297   -2.6096   -3.4673 O.co2     1 <0>        -0.6884
     13 O2         -0.4963   -2.4014   -1.3718 O.co2     1 <0>        -0.6688
     14 C12        -4.5239    2.4777   -2.4929 C.ar      1 <0>        -0.0498
     15 C13        -4.7310    3.2245   -1.3331 C.ar      1 <0>        -0.0785
     16 C14        -5.5811    4.3093   -1.3564 C.ar      1 <0>        -0.1449
     17 C15        -6.2311    4.6591   -2.5328 C.ar      1 <0>         0.1131
     18 C16        -6.0274    3.9173   -3.6892 C.ar      1 <0>        -0.2011
     19 C17        -5.1738    2.8351   -3.6743 C.ar      1 <0>        -0.0784
     20 O3         -7.0681    5.7286   -2.5524 O.3       1 <0>        -0.3218
     21 C18        -7.7038    6.0323   -3.7956 C.3       1 <0>         0.0570
     22 C19        -8.6014    7.2593   -3.6232 C.3       1 <0>         0.0645
     23 N1         -7.7731    8.4323   -3.3135 N.3       1 <0>        -0.6835
     24 C20        -8.6031    9.6320   -3.1408 C.3       1 <0>         0.0283
     25 C21        -7.7071   10.8301   -2.8203 C.3       1 <0>         0.1536
     26 H1         -7.0055   10.9885   -3.6392 H         1 <0>         0.1352
     27 C22        -8.5585   12.0609   -2.6431 C.ar      1 <0>        -0.1621
     28 C23        -9.1360   12.3430   -1.4120 C.ar      1 <0>         0.0407
     29 C24        -9.9103   13.4826   -1.2918 C.ar      1 <0>        -0.1863
     30 C25       -10.0835   14.3031   -2.4020 C.ar      1 <0>         0.4497
     31 N2         -9.5161   13.9997   -3.5591 N.ar      1 <0>        -0.4974
     32 C26        -8.7676   12.9221   -3.7012 C.ar      1 <0>         0.1567
     33 N3        -10.8596   15.4514   -2.2955 N.pl3     1 <0>        -0.8202
     34 O4         -6.9829   10.5744   -1.6152 O.3       1 <0>        -0.5337
     35 H2          1.1092    1.8311   -0.1161 H         1 <0>         0.0439
     36 H3         -0.4576    1.8473   -0.9606 H         1 <0>         0.0504
     37 H4         -0.4049    1.8833    0.8183 H         1 <0>         0.0437
     38 H5          0.5206   -0.4311   -0.9434 H         1 <0>         0.0832
     39 H6          0.3088   -0.1465    2.0883 H         1 <0>         0.0405
     40 H7          0.7646   -1.6286    1.2142 H         1 <0>         0.0609
     41 H8          1.8229   -0.1987    1.1539 H         1 <0>         0.0427
     42 H9         -1.4333   -1.6003    0.1184 H         1 <0>         0.1112
     43 H10        -1.9156   -0.0529    0.8540 H         1 <0>         0.0400
     44 H11        -3.1244    1.5299   -0.3883 H         1 <0>         0.1145
     45 H12        -3.9050    0.8455   -4.5490 H         1 <0>         0.1129
     46 H13        -2.4013   -1.0804   -4.5215 H         1 <0>         0.1262
     47 H14        -4.2261    2.9528   -0.4179 H         1 <0>         0.1334
     48 H15        -5.7421    4.8878   -0.4586 H         1 <0>         0.1272
     49 H16        -6.5350    4.1915   -4.6023 H         1 <0>         0.1245
     50 H17        -5.0122    2.2616   -4.5750 H         1 <0>         0.1294
     51 H18        -6.9453    6.2402   -4.5503 H         1 <0>         0.0736
     52 H19        -8.3078    5.1819   -4.1122 H         1 <0>         0.0697
     53 H20        -9.1538    7.4379   -4.5457 H         1 <0>         0.0921
     54 H21        -9.3031    7.0844   -2.8076 H         1 <0>         0.0440
     55 H22        -9.1555    9.8271   -4.0600 H         1 <0>         0.0859
     56 H23        -9.3047    9.4736   -2.3219 H         1 <0>         0.0386
     57 H24        -8.9841   11.6871   -0.5675 H         1 <0>         0.1725
     58 H25       -10.3745   13.7320   -0.3490 H         1 <0>         0.1831
     59 H26        -8.3165   12.7090   -4.6591 H         1 <0>         0.2110
     60 H27       -11.2776   15.6776   -1.4499 H         1 <0>         0.4413
     61 H28       -10.9832   16.0265   -3.0668 H         1 <0>         0.4223
     62 H29        -7.5450   10.4238   -0.8430 H         1 <0>         0.3769
     63 H30        -7.2025    8.2669   -2.4980 H         1 <0>         0.3632
     64 H31        -9.6506   14.5860   -4.3201 H         1 <0>         0.4450
@<TRIPOS>BOND
     1    1    2 1
     2    1   35 1
     3    1   36 1
     4    1   37 1
     5    2    3 1
     6    2    4 1
     7    2   38 1
     8    3   39 1
     9    3   40 1
    10    3   41 1
    11    4    5 1
    12    4   42 1
    13    4   43 1
    14    5   10 ar
    15    5    6 ar
    16    6    7 ar
    17    6   44 1
    18    7    8 ar
    19    7   14 1
    20    8    9 ar
    21    8   45 1
    22    9   10 ar
    23    9   46 1
    24   10   11 1
    25   11   12 2
    26   11   13 1
    27   14   19 ar
    28   14   15 ar
    29   15   16 ar
    30   15   47 1
    31   16   17 ar
    32   16   48 1
    33   17   18 ar
    34   17   20 1
    35   18   19 ar
    36   18   49 1
    37   19   50 1
    38   20   21 1
    39   21   22 1
    40   21   51 1
    41   21   52 1
    42   22   23 1
    43   22   53 1
    44   22   54 1
    45   23   24 1
    46   23   63 1
    47   24   25 1
    48   24   55 1
    49   24   56 1
    50   25   26 1
    51   25   27 1
    52   25   34 1
    53   27   32 ar
    54   27   28 ar
    55   28   29 ar
    56   28   57 1
    57   29   30 ar
    58   29   58 1
    59   30   31 ar
    60   30   33 1
    61   31   32 ar
    62   31   64 1
    63   32   59 1
    64   33   60 1
    65   33   61 1
    66   34   62 1
@<TRIPOS>MOLECULE
CHEMBL459646__2
   65    67     0     0     0
SMALL
USER_CHARGES

@<TRIPOS>ATOM
      1 C1         -2.8406    1.4004    0.7857 C.3       1 <0>        -0.1370
      2 C2         -2.8692   -0.0841    0.4167 C.3       1 <0>        -0.0784
      3 C3         -3.8767   -0.3097   -0.7125 C.3       1 <0>        -0.1472
      4 C4         -1.4780   -0.5215   -0.0461 C.3       1 <0>        -0.0737
      5 C5         -1.4685   -2.0118   -0.2698 C.ar      1 <0>        -0.0409
      6 C6         -1.5354   -2.5179   -1.5479 C.ar      1 <0>        -0.1167
      7 C7         -1.5264   -3.8989   -1.7510 C.ar      1 <0>        -0.0866
      8 C8         -1.4496   -4.7660   -0.6597 C.ar      1 <0>        -0.1259
      9 C9         -1.3830   -4.2670    0.6097 C.ar      1 <0>        -0.0854
     10 C10        -1.3858   -2.8840    0.8208 C.ar      1 <0>        -0.1136
     11 C11        -1.3079   -2.3469    2.1905 C.2       1 <0>         0.5146
     12 O1         -1.3430   -3.1068    3.1484 O.co2     1 <0>        -0.6834
     13 O2         -1.2080   -1.1410    2.3698 O.co2     1 <0>        -0.6641
     14 C12        -1.5989   -4.4451   -3.1265 C.ar      1 <0>        -0.0209
     15 C13        -1.6704   -3.5807   -4.2189 C.ar      1 <0>        -0.0821
     16 C14        -1.7378   -4.0921   -5.4973 C.ar      1 <0>        -0.1305
     17 C15        -1.7345   -5.4663   -5.6982 C.ar      1 <0>         0.0835
     18 C16        -1.6638   -6.3297   -4.6126 C.ar      1 <0>        -0.1925
     19 C17        -1.5900   -5.8248   -3.3321 C.ar      1 <0>        -0.0833
     20 O3         -1.8010   -5.9670   -6.9590 O.3       1 <0>        -0.3328
     21 C18        -1.7934   -7.3896   -7.0934 C.3       1 <0>         0.0229
     22 C19        -1.8739   -7.7624   -8.5751 C.3       1 <0>         0.0022
     23 N1         -0.6607   -7.3007   -9.2628 N.4       1 <0>        -0.5068
     24 C20        -0.7379   -7.6586  -10.6854 C.3       1 <0>        -0.0466
     25 C21         0.5256   -7.1777  -11.4016 C.3       1 <0>         0.1401
     26 H1          1.3994   -7.6518  -10.9546 H         1 <0>         0.1478
     27 C22         0.4464   -7.5448  -12.8611 C.ar      1 <0>        -0.1928
     28 C23        -0.2091   -6.7126  -13.7592 C.ar      1 <0>         0.0405
     29 C24        -0.2590   -7.0863  -15.0898 C.ar      1 <0>        -0.1798
     30 C25         0.3456   -8.2767  -15.4813 C.ar      1 <0>         0.4653
     31 N2          0.9612   -9.0433  -14.5945 N.ar      1 <0>        -0.5017
     32 C26         1.0293   -8.7088  -13.3197 C.ar      1 <0>         0.1749
     33 N3          0.3027   -8.6648  -16.8154 N.pl3     1 <0>        -0.8042
     34 O4          0.6354   -5.7587  -11.2727 O.3       1 <0>        -0.5313
     35 H2         -3.8318    1.7120    1.1155 H         1 <0>         0.0445
     36 H3         -2.1229    1.5611    1.5902 H         1 <0>         0.0627
     37 H4         -2.5469    1.9858   -0.0855 H         1 <0>         0.0411
     38 H5         -3.1630   -0.6695    1.2880 H         1 <0>         0.0825
     39 H6         -3.6298    0.3373   -1.5542 H         1 <0>         0.0439
     40 H7         -3.8380   -1.3513   -1.0313 H         1 <0>         0.0487
     41 H8         -4.8799   -0.0757   -0.3564 H         1 <0>         0.0459
     42 H9         -1.2283   -0.0127   -0.9772 H         1 <0>         0.0409
     43 H10        -0.7436   -0.2639    0.7170 H         1 <0>         0.1143
     44 H11        -1.5952   -1.8475   -2.3925 H         1 <0>         0.1151
     45 H12        -1.4431   -5.8340   -0.8198 H         1 <0>         0.1129
     46 H13        -1.3241   -4.9409    1.4516 H         1 <0>         0.1295
     47 H14        -1.6733   -2.5120   -4.0634 H         1 <0>         0.1397
     48 H15        -1.7935   -3.4233   -6.3435 H         1 <0>         0.1297
     49 H16        -1.6622   -7.3979   -4.7722 H         1 <0>         0.1237
     50 H17        -1.5302   -6.4966   -2.4886 H         1 <0>         0.1351
     51 H18        -0.8734   -7.7899   -6.6675 H         1 <0>         0.0875
     52 H19        -2.6504   -7.8089   -6.5662 H         1 <0>         0.1123
     53 H20        -1.9576   -8.8448   -8.6734 H         1 <0>         0.1510
     54 H21        -2.7477   -7.2883   -9.0221 H         1 <0>         0.1441
     55 H22        -0.5832   -6.2988   -9.1718 H         1 <0>         0.4438
     56 H23        -0.8217   -8.7409  -10.7837 H         1 <0>         0.1475
     57 H24        -1.6117   -7.1845  -11.1324 H         1 <0>         0.1417
     58 H25        -0.6697   -5.7943  -13.4259 H         1 <0>         0.1752
     59 H26        -0.7608   -6.4629  -15.8149 H         1 <0>         0.1893
     60 H27         1.5442   -9.3565  -12.6255 H         1 <0>         0.2117
     61 H28        -0.1474   -8.1066  -17.4686 H         1 <0>         0.4469
     62 H29         0.7228   -9.4938  -17.0931 H         1 <0>         0.4281
     63 H30        -0.1095   -5.2708  -11.6497 H         1 <0>         0.3943
     64 H31         0.1482   -7.7396   -8.8490 H         1 <0>         0.4323
     65 H32         1.3756   -9.8691  -14.8898 H         1 <0>         0.4507
@<TRIPOS>BOND
     1    1    2 1
     2    1   35 1
     3    1   36 1
     4    1   37 1
     5    2    3 1
     6    2    4 1
     7    2   38 1
     8    3   39 1
     9    3   40 1
    10    3   41 1
    11    4    5 1
    12    4   42 1
    13    4   43 1
    14    5   10 ar
    15    5    6 ar
    16    6    7 ar
    17    6   44 1
    18    7    8 ar
    19    7   14 1
    20    8    9 ar
    21    8   45 1
    22    9   10 ar
    23    9   46 1
    24   10   11 1
    25   11   12 2
    26   11   13 1
    27   14   19 ar
    28   14   15 ar
    29   15   16 ar
    30   15   47 1
    31   16   17 ar
    32   16   48 1
    33   17   18 ar
    34   17   20 1
    35   18   19 ar
    36   18   49 1
    37   19   50 1
    38   20   21 1
    39   21   22 1
    40   21   51 1
    41   21   52 1
    42   22   23 1
    43   22   53 1
    44   22   54 1
    45   23   24 1
    46   23   55 1
    47   23   64 1
    48   24   25 1
    49   24   56 1
    50   24   57 1
    51   25   26 1
    52   25   27 1
    53   25   34 1
    54   27   32 ar
    55   27   28 ar
    56   28   29 ar
    57   28   58 1
    58   29   30 ar
    59   29   59 1
    60   30   31 ar
    61   30   33 1
    62   31   32 ar
    63   31   65 1
    64   32   60 1
    65   33   61 1
    66   33   62 1
    67   34   63 1
@<TRIPOS>MOLECULE
CHEMBL52407
   62    65     0     0     0
SMALL
USER_CHARGES

@<TRIPOS>ATOM
      1 C1          0.0479    7.0966    7.1385 C.3       1 <0>        -0.1547
      2 C2         -0.5895    5.7224    6.9235 C.3       1 <0>        -0.1260
      3 C3          0.3229    4.6404    7.5046 C.3       1 <0>        -0.1218
      4 C4         -0.3145    3.2662    7.2897 C.3       1 <0>        -0.1209
      5 C5          0.5979    2.1843    7.8708 C.3       1 <0>        -0.1211
      6 C6         -0.0395    0.8101    7.6559 C.3       1 <0>        -0.1179
      7 C7          0.8729   -0.2719    8.2370 C.3       1 <0>        -0.1168
      8 C8          0.2355   -1.6461    8.0220 C.3       1 <0>        -0.0408
      9 C9          1.1342   -2.7118    8.5944 C.2       1 <0>         0.3214
     10 N1          1.0913   -3.1708    9.8132 N.2       1 <0>        -0.5569
     11 C10         2.0333   -4.1128    9.9838 C.2       1 <0>         0.4937
     12 N2          2.6882   -4.2593    8.8599 N.2       1 <0>        -0.3740
     13 O1          2.1083   -3.3516    7.9349 O.3       1 <0>        -0.1010
     14 N3          2.2732   -4.8151   11.1585 N.pl3     1 <0>        -0.5094
     15 C11         1.5262   -4.6427   12.4073 C.3       1 <0>         0.1222
     16 C12         2.1618   -5.6327   13.3971 C.3       1 <0>        -0.0854
     17 C13         3.2565   -6.3119   12.6053 C.ar      1 <0>        -0.1592
     18 C14         3.2578   -5.7928   11.3198 C.ar      1 <0>         0.2200
     19 C15         4.1869   -6.2743   10.3955 C.ar      1 <0>        -0.1632
     20 C16         5.0852   -7.2549   10.7591 C.ar      1 <0>         0.0223
     21 C17         5.0726   -7.7692   12.0424 C.ar      1 <0>        -0.7013
     22 C18         4.1614   -7.2912   12.9662 C.ar      1 <0>         0.0319
     23 S1          6.2216   -9.0233   12.5027 S.o2      1 <0>         2.6942
     24 O2          5.5917   -9.8006   13.5117 O.2       1 <0>        -0.9527
     25 O3          6.7072   -9.5924   11.2946 O.2       1 <0>        -0.9467
     26 N4          7.5086   -8.2684   13.2211 N.pl3     1 <0>        -1.0632
     27 C19         8.2878   -7.3690   12.4899 C.ar      1 <0>         0.1198
     28 C20         9.1916   -7.8388   11.5453 C.ar      1 <0>        -0.1043
     29 C21         9.9602   -6.9468   10.8237 C.ar      1 <0>        -0.1112
     30 C22         9.8312   -5.5872   11.0409 C.ar      1 <0>        -0.1091
     31 C23         8.9325   -5.1160   11.9804 C.ar      1 <0>        -0.1145
     32 C24         8.1567   -6.0024   12.7015 C.ar      1 <0>        -0.1107
     33 H1          1.0158    7.1304    6.6383 H         1 <0>         0.0534
     34 H2         -0.6021    7.8674    6.7245 H         1 <0>         0.0537
     35 H3          0.1842    7.2709    8.2058 H         1 <0>         0.0533
     36 H4         -1.5574    5.6886    7.4237 H         1 <0>         0.0605
     37 H5         -0.7258    5.5480    5.8563 H         1 <0>         0.0606
     38 H6          1.2908    4.6742    7.0045 H         1 <0>         0.0609
     39 H7          0.4592    4.8148    8.5719 H         1 <0>         0.0607
     40 H8         -1.2824    3.2324    7.7899 H         1 <0>         0.0620
     41 H9         -0.4508    3.0919    6.2224 H         1 <0>         0.0622
     42 H10         1.5658    2.2180    7.3706 H         1 <0>         0.0630
     43 H11         0.7342    2.3586    8.9381 H         1 <0>         0.0627
     44 H12        -1.0074    0.7763    8.1561 H         1 <0>         0.0686
     45 H13        -0.1758    0.6357    6.5886 H         1 <0>         0.0686
     46 H14         1.8408   -0.2381    7.7368 H         1 <0>         0.0727
     47 H15         1.0092   -0.0975    9.3043 H         1 <0>         0.0742
     48 H16        -0.7324   -1.6799    8.5222 H         1 <0>         0.1162
     49 H17         0.0992   -1.8205    6.9547 H         1 <0>         0.1093
     50 H18         1.6320   -3.6215   12.7734 H         1 <0>         0.0909
     51 H19         0.4741   -4.8834   12.2549 H         1 <0>         0.0907
     52 H20         2.5835   -5.1002   14.2496 H         1 <0>         0.1003
     53 H21         1.4246   -6.3631   13.7306 H         1 <0>         0.1011
     54 H22         4.2017   -5.8770    9.3913 H         1 <0>         0.1449
     55 H23         5.8008   -7.6230   10.0389 H         1 <0>         0.1483
     56 H24         4.1497   -7.6924   13.9688 H         1 <0>         0.1453
     57 H25         7.7213   -8.4509   14.1497 H         1 <0>         0.4256
     58 H26         9.2933   -8.9006   11.3757 H         1 <0>         0.1359
     59 H27        10.6630   -7.3114   10.0892 H         1 <0>         0.1308
     60 H28        10.4340   -4.8917   10.4757 H         1 <0>         0.1270
     61 H29         8.8343   -4.0536   12.1476 H         1 <0>         0.1269
     62 H30         7.4518   -5.6336   13.4319 H         1 <0>         0.1271
@<TRIPOS>BOND
     1    1    2 1
     2    1   33 1
     3    1   34 1
     4    1   35 1
     5    2    3 1
     6    2   36 1
     7    2   37 1
     8    3    4 1
     9    3   38 1
    10    3   39 1
    11    4    5 1
    12    4   40 1
    13    4   41 1
    14    5    6 1
    15    5   42 1
    16    5   43 1
    17    6    7 1
    18    6   44 1
    19    6   45 1
    20    7    8 1
    21    7   46 1
    22    7   47 1
    23    8    9 1
    24    8   48 1
    25    8   49 1
    26    9   13 1
    27    9   10 2
    28   10   11 1
    29   11   12 2
    30   11   14 1
    31   12   13 1
    32   14   18 1
    33   14   15 1
    34   15   16 1
    35   15   50 1
    36   15   51 1
    37   16   17 1
    38   16   52 1
    39   16   53 1
    40   17   22 ar
    41   17   18 ar
    42   18   19 ar
    43   19   20 ar
    44   19   54 1
    45   20   21 ar
    46   20   55 1
    47   21   22 ar
    48   21   23 1
    49   22   56 1
    50   23   24 2
    51   23   25 2
    52   23   26 1
    53   26   27 1
    54   26   57 1
    55   27   32 ar
    56   27   28 ar
    57   28   29 ar
    58   28   58 1
    59   29   30 ar
    60   29   59 1
    61   30   31 ar
    62   30   60 1
    63   31   32 ar
    64   31   61 1
    65   32   62 1
@<TRIPOS>MOLECULE
CHEMBL459863
   63    65     0     0     0
SMALL
USER_CHARGES

@<TRIPOS>ATOM
      1 C1         -0.0187    1.5258    0.0104 C.3       1 <0>        -0.1457
      2 C2          0.0021   -0.0041    0.0020 C.3       1 <0>        -0.1238
      3 C3         -1.4333   -0.5336    0.0129 C.3       1 <0>         0.0521
      4 O1         -1.4139   -1.9625    0.0050 O.3       1 <0>        -0.2615
      5 C4         -2.6138   -2.5946    0.0131 C.ar      1 <0>         0.1587
      6 C5         -3.7873   -1.8596    0.0225 C.ar      1 <0>        -0.2129
      7 C6         -5.0155   -2.5152    0.0308 C.ar      1 <0>        -0.0458
      8 C7         -5.0664   -3.9114    0.0301 C.ar      1 <0>        -0.1558
      9 C8         -3.9147   -4.6428    0.0213 C.ar      1 <0>        -0.0514
     10 C9         -2.6722   -3.9978    0.0061 C.ar      1 <0>        -0.1484
     11 C10        -1.4320   -4.7871   -0.0105 C.2       1 <0>         0.5177
     12 O2         -1.4849   -6.0096   -0.0166 O.co2     1 <0>        -0.6910
     13 O3         -0.3469   -4.2216   -0.0183 O.co2     1 <0>        -0.6630
     14 C11        -6.2729   -1.7295    0.0409 C.ar      1 <0>        -0.0071
     15 C12        -6.2274   -0.3362    0.0363 C.ar      1 <0>        -0.1152
     16 C13        -7.4010    0.3898    0.0458 C.ar      1 <0>        -0.1092
     17 C14        -8.6208   -0.2624    0.0603 C.ar      1 <0>        -0.1187
     18 C15        -8.6721   -1.6448    0.0649 C.ar      1 <0>        -0.1089
     19 C16        -7.5052   -2.3813    0.0492 C.ar      1 <0>        -0.1129
     20 C17        -9.8988    0.5362    0.0716 C.3       1 <0>        -0.0668
     21 C18       -10.3464    0.8027   -1.3670 C.3       1 <0>        -0.1464
     22 C19       -11.6439    1.6135   -1.3555 C.3       1 <0>        -0.0101
     23 N1        -12.0736    1.8693   -2.7367 N.4       1 <0>        -0.5059
     24 C20       -13.3194    2.6478   -2.7257 C.3       1 <0>        -0.0423
     25 C21       -13.7670    2.9143   -4.1643 C.3       1 <0>         0.1351
     26 H1        -13.9358    1.9657   -4.6739 H         1 <0>         0.1344
     27 C22       -15.0450    3.7128   -4.1530 C.ar      1 <0>        -0.1289
     28 C23       -14.9977    5.0914   -4.0583 C.ar      1 <0>        -0.1032
     29 C24       -16.1694    5.8245   -4.0479 C.ar      1 <0>        -0.0968
     30 C25       -17.3893    5.1797   -4.1316 C.ar      1 <0>        -0.0923
     31 C26       -17.4372    3.8005   -4.2263 C.ar      1 <0>        -0.0315
     32 C27       -16.2636    3.0675   -4.2428 C.ar      1 <0>        -0.0946
     33 Cl1       -18.9688    2.9900   -4.3315 Cl        1 <0>        -0.0491
     34 O4        -12.7519    3.6496   -4.8505 O.3       1 <0>        -0.5449
     35 H2          1.0039    1.9031    0.0027 H         1 <0>         0.0622
     36 H3         -0.5459    1.8868   -0.8726 H         1 <0>         0.0525
     37 H4         -0.5289    1.8773    0.9072 H         1 <0>         0.0532
     38 H5          0.5123   -0.3556   -0.8948 H         1 <0>         0.0759
     39 H6          0.5293   -0.3651    0.8851 H         1 <0>         0.0763
     40 H7         -1.9435   -0.1821    0.9097 H         1 <0>         0.0514
     41 H8         -1.9605   -0.1726   -0.8702 H         1 <0>         0.0506
     42 H9         -3.7499   -0.7803    0.0238 H         1 <0>         0.1223
     43 H10        -6.0222   -4.4142    0.0369 H         1 <0>         0.1178
     44 H11        -3.9617   -5.7218    0.0212 H         1 <0>         0.1367
     45 H12        -5.2756    0.1740    0.0258 H         1 <0>         0.1259
     46 H13        -7.3669    1.4693    0.0423 H         1 <0>         0.1190
     47 H14        -9.6274   -2.1486    0.0762 H         1 <0>         0.1199
     48 H15        -7.5465   -3.4605    0.0483 H         1 <0>         0.1307
     49 H16       -10.6731   -0.0247    0.5950 H         1 <0>         0.0802
     50 H17        -9.7300    1.4848    0.5812 H         1 <0>         0.0796
     51 H18        -9.5721    1.3636   -1.8904 H         1 <0>         0.0899
     52 H19       -10.5152   -0.1459   -1.8766 H         1 <0>         0.0903
     53 H20       -12.4182    1.0526   -0.8321 H         1 <0>         0.1326
     54 H21       -11.4751    2.5621   -0.8459 H         1 <0>         0.1317
     55 H22       -11.3569    2.3885   -3.2212 H         1 <0>         0.4324
     56 H23       -14.0937    2.0869   -2.2023 H         1 <0>         0.1450
     57 H24       -13.1506    3.5964   -2.2161 H         1 <0>         0.1372
     58 H25       -14.0449    5.5956   -3.9922 H         1 <0>         0.1301
     59 H26       -16.1319    6.9014   -3.9740 H         1 <0>         0.1420
     60 H27       -18.3048    5.7526   -4.1227 H         1 <0>         0.1426
     61 H28       -16.3002    1.9910   -4.3212 H         1 <0>         0.1390
     62 H29       -12.5492    4.5067   -4.4513 H         1 <0>         0.3886
     63 H30       -12.2299    0.9912   -3.2085 H         1 <0>         0.4302
@<TRIPOS>BOND
     1    1    2 1
     2    1   35 1
     3    1   36 1
     4    1   37 1
     5    2    3 1
     6    2   38 1
     7    2   39 1
     8    3    4 1
     9    3   40 1
    10    3   41 1
    11    4    5 1
    12    5   10 ar
    13    5    6 ar
    14    6    7 ar
    15    6   42 1
    16    7    8 ar
    17    7   14 1
    18    8    9 ar
    19    8   43 1
    20    9   10 ar
    21    9   44 1
    22   10   11 1
    23   11   12 2
    24   11   13 1
    25   14   19 ar
    26   14   15 ar
    27   15   16 ar
    28   15   45 1
    29   16   17 ar
    30   16   46 1
    31   17   18 ar
    32   17   20 1
    33   18   19 ar
    34   18   47 1
    35   19   48 1
    36   20   21 1
    37   20   49 1
    38   20   50 1
    39   21   22 1
    40   21   51 1
    41   21   52 1
    42   22   23 1
    43   22   53 1
    44   22   54 1
    45   23   24 1
    46   23   55 1
    47   23   63 1
    48   24   25 1
    49   24   56 1
    50   24   57 1
    51   25   26 1
    52   25   27 1
    53   25   34 1
    54   27   32 ar
    55   27   28 ar
    56   28   29 ar
    57   28   58 1
    58   29   30 ar
    59   29   59 1
    60   30   31 ar
    61   30   60 1
    62   31   32 ar
    63   31   33 1
    64   32   61 1
    65   34   62 1
@<TRIPOS>MOLECULE
CHEMBL295502
   60    64     0     0     0
SMALL
USER_CHARGES

@<TRIPOS>ATOM
      1 C1          4.5840   -0.9403   -4.0732 C.ar      1 <0>        -0.1266
      2 C2          3.4212   -0.2991   -3.6870 C.ar      1 <0>        -0.1028
      3 C3          3.0973   -0.2004   -2.3481 C.ar      1 <0>        -0.1285
      4 C4          3.9410   -0.7461   -1.3889 C.ar      1 <0>         0.1420
      5 C5          5.1082   -1.3896   -1.7804 C.ar      1 <0>        -0.1523
      6 C6          5.4261   -1.4847   -3.1209 C.ar      1 <0>        -0.0969
      7 N1          3.6167   -0.6477   -0.0339 N.pl3     1 <0>        -1.0573
      8 S1          3.7405   -1.9770    0.9458 S.o2      1 <0>         2.6958
      9 O1          5.0498   -2.4973    0.7608 O.2       1 <0>        -0.9476
     10 O2          3.2482   -1.5889    2.2210 O.2       1 <0>        -0.9492
     11 C7          2.6241   -3.1893    0.3225 C.ar      1 <0>        -0.7024
     12 C8          1.2920   -3.1609    0.6934 C.ar      1 <0>         0.0192
     13 C9          0.4162   -4.1080    0.2081 C.ar      1 <0>        -0.1643
     14 C10         0.8667   -5.1037   -0.6617 C.ar      1 <0>         0.2208
     15 C11         2.2033   -5.1230   -1.0275 C.ar      1 <0>        -0.1577
     16 C12         3.0763   -4.1679   -0.5428 C.ar      1 <0>         0.0359
     17 C13         2.4285   -6.2875   -1.9656 C.3       1 <0>        -0.0855
     18 C14         1.0466   -6.9477   -2.1008 C.3       1 <0>         0.1222
     19 N2          0.1537   -6.1451   -1.2605 N.pl3     1 <0>        -0.5092
     20 C15        -1.2037   -6.3848   -1.0852 C.2       1 <0>         0.4940
     21 N3         -1.9015   -7.3842   -1.6493 N.2       1 <0>        -0.5565
     22 C16        -3.1490   -7.3231   -1.2776 C.2       1 <0>         0.3218
     23 O3         -3.2955   -6.2753   -0.4567 O.3       1 <0>        -0.1011
     24 N4         -2.0132   -5.6773   -0.3386 N.2       1 <0>        -0.3749
     25 C17        -4.2417   -8.2708   -1.7004 C.3       1 <0>        -0.0409
     26 C18        -4.3160   -9.4368   -0.7126 C.3       1 <0>        -0.1176
     27 C19        -5.4255  -10.3990   -1.1418 C.3       1 <0>        -0.1100
     28 C20        -5.4998  -11.5650   -0.1540 C.3       1 <0>        -0.0935
     29 C21        -4.2318  -12.4362   -0.2685 C.3       1 <0>        -0.1218
     30 C22        -4.7465  -13.8838   -0.0718 C.3       1 <0>        -0.1277
     31 C23        -6.1056  -13.8672   -0.8146 C.3       1 <0>        -0.1261
     32 C24        -6.6911  -12.4749   -0.5012 C.3       1 <0>        -0.1220
     33 H1          4.8327   -1.0201   -5.1211 H         1 <0>         0.1255
     34 H2          2.7659    0.1253   -4.4332 H         1 <0>         0.1269
     35 H3          2.1893    0.3009   -2.0471 H         1 <0>         0.1277
     36 H4          5.7665   -1.8147   -1.0372 H         1 <0>         0.1557
     37 H5          6.3334   -1.9848   -3.4260 H         1 <0>         0.1306
     38 H6          3.3189    0.1994    0.3332 H         1 <0>         0.4277
     39 H7          0.9369   -2.3941    1.3659 H         1 <0>         0.1467
     40 H8         -0.6227   -4.0804    0.5019 H         1 <0>         0.1454
     41 H9          4.1152   -4.1888   -0.8369 H         1 <0>         0.1479
     42 H10         2.7769   -5.9326   -2.9355 H         1 <0>         0.1010
     43 H11         3.1444   -6.9885   -1.5365 H         1 <0>         0.1013
     44 H12         0.7146   -6.9208   -3.1386 H         1 <0>         0.0910
     45 H13         1.0818   -7.9759   -1.7407 H         1 <0>         0.0911
     46 H14        -5.1956   -7.7434   -1.7123 H         1 <0>         0.1090
     47 H15        -4.0254   -8.6530   -2.6980 H         1 <0>         0.1160
     48 H16        -3.3622   -9.9642   -0.7007 H         1 <0>         0.0758
     49 H17        -4.5324   -9.0546    0.2850 H         1 <0>         0.0726
     50 H18        -6.3793   -9.8716   -1.1537 H         1 <0>         0.0688
     51 H19        -5.2091  -10.7812   -2.1394 H         1 <0>         0.0698
     52 H20        -5.6030  -11.1865    0.8629 H         1 <0>         0.0723
     53 H21        -3.7789  -12.3230   -1.2535 H         1 <0>         0.0677
     54 H22        -3.5180  -12.1756    0.5129 H         1 <0>         0.0627
     55 H23        -4.0652  -14.6015   -0.5287 H         1 <0>         0.0651
     56 H24        -4.8874  -14.1031    0.9866 H         1 <0>         0.0656
     57 H25        -5.9552  -13.9851   -1.8877 H         1 <0>         0.0647
     58 H26        -6.7592  -14.6510   -0.4316 H         1 <0>         0.0636
     59 H27        -7.3721  -12.5386    0.3476 H         1 <0>         0.0631
     60 H28        -7.2164  -12.0857   -1.3734 H         1 <0>         0.0655
@<TRIPOS>BOND
     1    1    6 ar
     2    1    2 ar
     3    1   33 1
     4    2    3 ar
     5    2   34 1
     6    3    4 ar
     7    3   35 1
     8    4    5 ar
     9    4    7 1
    10    5    6 ar
    11    5   36 1
    12    6   37 1
    13    7    8 1
    14    7   38 1
    15    8    9 2
    16    8   10 2
    17    8   11 1
    18   11   16 ar
    19   11   12 ar
    20   12   13 ar
    21   12   39 1
    22   13   14 ar
    23   13   40 1
    24   14   19 1
    25   14   15 ar
    26   15   16 ar
    27   15   17 1
    28   16   41 1
    29   17   18 1
    30   17   42 1
    31   17   43 1
    32   18   19 1
    33   18   44 1
    34   18   45 1
    35   19   20 1
    36   20   24 2
    37   20   21 1
    38   21   22 2
    39   22   23 1
    40   22   25 1
    41   23   24 1
    42   25   26 1
    43   25   46 1
    44   25   47 1
    45   26   27 1
    46   26   48 1
    47   26   49 1
    48   27   28 1
    49   27   50 1
    50   27   51 1
    51   28   32 1
    52   28   29 1
    53   28   52 1
    54   29   30 1
    55   29   53 1
    56   29   54 1
    57   30   31 1
    58   30   55 1
    59   30   56 1
    60   31   32 1
    61   31   57 1
    62   31   58 1
    63   32   59 1
    64   32   60 1
@<TRIPOS>MOLECULE
CHEMBL443435
   73    74     0     0     0
SMALL
USER_CHARGES

@<TRIPOS>ATOM
      1 C1          0.0662    1.2294   -0.0474 C.ar      1 <0>        -0.1358
      2 C2          1.2502    1.9433   -0.0526 C.ar      1 <0>        -0.0580
      3 C3          2.4600    1.2752   -0.0592 C.ar      1 <0>        -0.1034
      4 C4          2.4863   -0.1072   -0.0599 C.ar      1 <0>        -0.0210
      5 C5          1.3028   -0.8209   -0.0537 C.ar      1 <0>        -0.6728
      6 C6          0.0925   -0.1525   -0.0486 C.ar      1 <0>        -0.0202
      7 S1          1.3363   -2.5826   -0.0559 S.o2      1 <0>         2.7003
      8 O1          0.0956   -3.0117   -0.5999 O.2       1 <0>        -0.9599
      9 O2          2.5858   -2.9643   -0.6145 O.2       1 <0>        -0.9596
     10 N1          1.3549   -3.0739    1.5255 N.pl3     1 <0>        -1.2478
     11 C7          3.7506    2.0533   -0.0659 C.3       1 <0>        -0.0823
     12 C8          4.1950    2.3165    1.3743 C.3       1 <0>        -0.1127
     13 C9          5.5052    3.1066    1.3674 C.3       1 <0>        -0.1197
     14 C10         5.9496    3.3698    2.8076 C.3       1 <0>         0.0628
     15 O3          7.1733    4.1077    2.8012 O.3       1 <0>        -0.3899
     16 C11         7.6780    4.4076    4.1040 C.3       1 <0>         0.0611
     17 C12         8.9834    5.1952    3.9764 C.3       1 <0>        -0.1206
     18 C13         9.5238    5.5164    5.3713 C.3       1 <0>        -0.1185
     19 C14        10.8293    6.3040    5.2436 C.3       1 <0>        -0.1167
     20 C15        11.3696    6.6252    6.6385 C.3       1 <0>        -0.1504
     21 C16        12.6751    7.4128    6.5109 C.3       1 <0>        -0.0103
     22 N2         13.1939    7.7212    7.8502 N.4       1 <0>        -0.5058
     23 C17        14.4473    8.4774    7.7276 C.3       1 <0>        -0.0422
     24 C18        14.9877    8.7986    9.1225 C.3       1 <0>         0.1373
     25 H1         15.1747    7.8703    9.6623 H         1 <0>         0.1335
     26 C19        16.2735    9.5743    8.9968 C.ar      1 <0>        -0.1347
     27 C20        16.2380   10.9482    8.8442 C.ar      1 <0>        -0.1042
     28 C21        17.4142   11.6652    8.7279 C.ar      1 <0>        -0.1194
     29 C22        18.6332   11.0076    8.7641 C.ar      1 <0>         0.1023
     30 C23        18.6697    9.6236    8.9182 C.ar      1 <0>         0.1239
     31 C24        17.4854    8.9116    9.0399 C.ar      1 <0>        -0.0918
     32 N3         19.8995    8.9532    8.9555 N.am      1 <0>        -0.6779
     33 C25        20.0536    7.8712    9.7442 C.2       1 <0>         0.4955
     34 O4         19.1062    7.4295   10.3596 O.2       1 <0>        -0.5356
     35 O5         19.7909   11.7113    8.6489 O.3       1 <0>        -0.4924
     36 O6         14.0278    9.5799    9.8369 O.3       1 <0>        -0.5465
     37 H2         -0.8791    1.7515   -0.0377 H         1 <0>         0.1359
     38 H3          1.2296    3.0231   -0.0520 H         1 <0>         0.1318
     39 H4          3.4317   -0.6293   -0.0657 H         1 <0>         0.1417
     40 H5         -0.8323   -0.7102   -0.0445 H         1 <0>         0.1434
     41 H6          0.9524   -3.9203    1.7751 H         1 <0>         0.4229
     42 H7          1.7684   -2.5151    2.2021 H         1 <0>         0.4162
     43 H8          4.5185    1.4789   -0.5839 H         1 <0>         0.0801
     44 H9          3.5994    3.0032   -0.5788 H         1 <0>         0.0790
     45 H10         3.4270    2.8910    1.8923 H         1 <0>         0.0670
     46 H11         4.3461    1.3667    1.8872 H         1 <0>         0.0673
     47 H12         6.2731    2.5321    0.8494 H         1 <0>         0.0739
     48 H13         5.3540    4.0564    0.8545 H         1 <0>         0.0730
     49 H14         5.1816    3.9442    3.3256 H         1 <0>         0.0492
     50 H15         6.1007    2.4199    3.3205 H         1 <0>         0.0497
     51 H16         6.9459    5.0036    4.6489 H         1 <0>         0.0481
     52 H17         7.8650    3.4793    4.6438 H         1 <0>         0.0484
     53 H18         9.7156    4.5993    3.4315 H         1 <0>         0.0734
     54 H19         8.7964    6.1235    3.4365 H         1 <0>         0.0731
     55 H20         8.7917    6.1124    5.9162 H         1 <0>         0.0688
     56 H21         9.7108    4.5881    5.9111 H         1 <0>         0.0689
     57 H22        11.5614    5.7080    4.6987 H         1 <0>         0.0760
     58 H23        10.6423    7.2323    4.7038 H         1 <0>         0.0759
     59 H24        10.6375    7.2212    7.1834 H         1 <0>         0.0885
     60 H25        11.5566    5.6969    7.1783 H         1 <0>         0.0886
     61 H26        13.4072    6.8168    5.9660 H         1 <0>         0.1322
     62 H27        12.4881    8.3411    5.9711 H         1 <0>         0.1319
     63 H28        12.5162    8.2729    8.3546 H         1 <0>         0.4318
     64 H29        15.1794    7.8814    7.1827 H         1 <0>         0.1442
     65 H30        14.2603    9.4057    7.1878 H         1 <0>         0.1376
     66 H31        15.2887   11.4625    8.8155 H         1 <0>         0.1287
     67 H32        17.3830   12.7381    8.6085 H         1 <0>         0.1424
     68 H33        17.5103    7.8390    9.1639 H         1 <0>         0.1485
     69 H34        20.6401    9.2677    8.4136 H         1 <0>         0.4227
     70 H35        21.0205    7.3975    9.8283 H         1 <0>         0.1551
     71 H36        20.1531   12.0136    9.4930 H         1 <0>         0.4001
     72 H37        13.8127   10.4222    9.4133 H         1 <0>         0.3877
     73 H38        13.3670    6.8619    8.3499 H         1 <0>         0.4297
@<TRIPOS>BOND
     1    1    6 ar
     2    1    2 ar
     3    1   37 1
     4    2    3 ar
     5    2   38 1
     6    3    4 ar
     7    3   11 1
     8    4    5 ar
     9    4   39 1
    10    5    6 ar
    11    5    7 1
    12    6   40 1
    13    7    8 2
    14    7    9 2
    15    7   10 1
    16   10   41 1
    17   10   42 1
    18   11   12 1
    19   11   43 1
    20   11   44 1
    21   12   13 1
    22   12   45 1
    23   12   46 1
    24   13   14 1
    25   13   47 1
    26   13   48 1
    27   14   15 1
    28   14   49 1
    29   14   50 1
    30   15   16 1
    31   16   17 1
    32   16   51 1
    33   16   52 1
    34   17   18 1
    35   17   53 1
    36   17   54 1
    37   18   19 1
    38   18   55 1
    39   18   56 1
    40   19   20 1
    41   19   57 1
    42   19   58 1
    43   20   21 1
    44   20   59 1
    45   20   60 1
    46   21   22 1
    47   21   61 1
    48   21   62 1
    49   22   23 1
    50   22   63 1
    51   22   73 1
    52   23   24 1
    53   23   64 1
    54   23   65 1
    55   24   25 1
    56   24   26 1
    57   24   36 1
    58   26   31 ar
    59   26   27 ar
    60   27   28 ar
    61   27   66 1
    62   28   29 ar
    63   28   67 1
    64   29   30 ar
    65   29   35 1
    66   30   31 ar
    67   30   32 1
    68   31   68 1
    69   32   33 am
    70   32   69 1
    71   33   34 2
    72   33   70 1
    73   35   71 1
    74   36   72 1
@<TRIPOS>MOLECULE
CHEMBL539226
   57    59     0     0     0
SMALL
USER_CHARGES

@<TRIPOS>ATOM
      1 C1          8.6349    0.3885   -2.8560 C.2       1 <0>        -0.1605
      2 C2          7.5454    0.4541   -2.0078 C.2       1 <0>        -0.1361
      3 C3          7.0492    1.6688   -1.6678 C.2       1 <0>        -0.1461
      4 S1          8.1336    2.7729   -2.5578 S.3       1 <0>         0.0518
      5 C4          9.1748    1.5409   -3.3228 C.2       1 <0>        -0.1635
      6 C5          5.8842    2.0010   -0.7715 C.3       1 <0>        -0.0528
      7 C6          6.3696    2.1553    0.6468 C.2       1 <0>         0.5171
      8 O1          7.5458    2.0098    0.9045 O.2       1 <0>        -0.5017
      9 N1          5.4967    2.4550    1.6290 N.am      1 <0>        -0.6790
     10 C7          5.9292    2.5030    2.9589 C.ar      1 <0>         0.1662
     11 C8          5.0868    2.0839    3.9802 C.ar      1 <0>        -0.1422
     12 C9          5.5167    2.1326    5.2918 C.ar      1 <0>        -0.0877
     13 C10         6.7845    2.5982    5.5885 C.ar      1 <0>        -0.1275
     14 C11         7.6257    3.0167    4.5739 C.ar      1 <0>        -0.0878
     15 C12         7.2040    2.9647    3.2597 C.ar      1 <0>        -0.1184
     16 C13         7.2504    2.6500    7.0208 C.3       1 <0>        -0.0972
     17 C14         7.9284    1.3276    7.3847 C.3       1 <0>        -0.0076
     18 N2          8.3825    1.3781    8.7808 N.4       1 <0>        -0.5036
     19 C15         9.0334    0.1084    9.1303 C.3       1 <0>        -0.0420
     20 C16         9.5064    0.1610   10.5844 C.3       1 <0>         0.0859
     21 H1          8.6502    0.3227   11.2393 H         1 <0>         0.1363
     22 C17        10.1844   -1.1614   10.9483 C.3       1 <0>         0.0287
     23 O2         10.5219   -1.1573   12.3369 O.3       1 <0>        -0.3011
     24 C18        11.1360   -2.2676   12.8262 C.ar      1 <0>         0.1088
     25 C19        11.4123   -3.3350   11.9848 C.ar      1 <0>        -0.1913
     26 C20        12.0361   -4.4628   12.4818 C.ar      1 <0>        -0.1061
     27 C21        12.3866   -4.5275   13.8222 C.ar      1 <0>         0.0804
     28 C22        12.1111   -3.4597   14.6634 C.ar      1 <0>        -0.1027
     29 C23        11.4912   -2.3302   14.1655 C.ar      1 <0>        -0.1259
     30 O3         12.9999   -5.6381   14.3117 O.3       1 <0>        -0.4957
     31 O4         10.4374    1.2333   10.7440 O.3       1 <0>        -0.5434
     32 H2          9.0524   -0.5664   -3.1391 H         1 <0>         0.1359
     33 H3          7.0961   -0.4490   -1.6220 H         1 <0>         0.1304
     34 H4         10.0167    1.6781   -3.9852 H         1 <0>         0.1882
     35 H5          5.4257    2.9330   -1.1020 H         1 <0>         0.1162
     36 H6          5.1490    1.1977   -0.8185 H         1 <0>         0.1225
     37 H7          4.5685    2.6373    1.4140 H         1 <0>         0.4172
     38 H8          4.0964    1.7205    3.7491 H         1 <0>         0.1330
     39 H9          4.8619    1.8071    6.0865 H         1 <0>         0.1288
     40 H10         8.6151    3.3802    4.8089 H         1 <0>         0.1277
     41 H11         7.8632    3.2869    2.4672 H         1 <0>         0.1453
     42 H12         7.9605    3.4679    7.1425 H         1 <0>         0.0963
     43 H13         6.3942    2.8116    7.6757 H         1 <0>         0.0964
     44 H14         7.2183    0.5096    7.2630 H         1 <0>         0.1343
     45 H15         8.7846    1.1659    6.7298 H         1 <0>         0.1339
     46 H16         9.0398    2.1352    8.8935 H         1 <0>         0.4335
     47 H17         8.3233   -0.7095    9.0085 H         1 <0>         0.1471
     48 H18         9.8896   -0.0533    8.4754 H         1 <0>         0.1399
     49 H19         9.5037   -1.9875   10.7423 H         1 <0>         0.0820
     50 H20        11.0906   -1.2806   10.3545 H         1 <0>         0.0769
     51 H21        11.1393   -3.2846   10.9411 H         1 <0>         0.1284
     52 H22        12.2505   -5.2942   11.8268 H         1 <0>         0.1352
     53 H23        12.3838   -3.5103   15.7072 H         1 <0>         0.1418
     54 H24        11.2801   -1.4972   14.8197 H         1 <0>         0.1388
     55 H25        13.9652   -5.6075   14.2643 H         1 <0>         0.3940
     56 H26        11.2261    1.1551   10.1900 H         1 <0>         0.3903
     57 H27         7.5899    1.5277    9.3871 H         1 <0>         0.4309
@<TRIPOS>BOND
     1    1    5 2
     2    1    2 1
     3    1   32 1
     4    2    3 2
     5    2   33 1
     6    3    4 1
     7    3    6 1
     8    4    5 1
     9    5   34 1
    10    6    7 1
    11    6   35 1
    12    6   36 1
    13    7    8 2
    14    7    9 am
    15    9   10 1
    16    9   37 1
    17   10   15 ar
    18   10   11 ar
    19   11   12 ar
    20   11   38 1
    21   12   13 ar
    22   12   39 1
    23   13   14 ar
    24   13   16 1
    25   14   15 ar
    26   14   40 1
    27   15   41 1
    28   16   17 1
    29   16   42 1
    30   16   43 1
    31   17   18 1
    32   17   44 1
    33   17   45 1
    34   18   19 1
    35   18   46 1
    36   18   57 1
    37   19   20 1
    38   19   47 1
    39   19   48 1
    40   20   21 1
    41   20   22 1
    42   20   31 1
    43   22   23 1
    44   22   49 1
    45   22   50 1
    46   23   24 1
    47   24   29 ar
    48   24   25 ar
    49   25   26 ar
    50   25   51 1
    51   26   27 ar
    52   26   52 1
    53   27   28 ar
    54   27   30 1
    55   28   29 ar
    56   28   53 1
    57   29   54 1
    58   30   55 1
    59   31   56 1
@<TRIPOS>MOLECULE
CHEMBL26183
   49    51     0     0     0
SMALL
USER_CHARGES

@<TRIPOS>ATOM
      1 C1         -0.0187    1.5258    0.0104 C.3       1 <0>        -0.1846
      2 C2          0.0021   -0.0041    0.0020 C.3       1 <0>         0.0285
      3 H1          0.5293   -0.3651    0.8851 H         1 <0>         0.1381
      4 C3          0.7182   -0.4975   -1.2568 C.3       1 <0>        -0.0560
      5 C4          0.8473   -1.9981   -1.2057 C.2       1 <0>        -0.2410
      6 C5          1.9041   -2.6937   -0.7564 C.2       1 <0>         0.1044
      7 N1          1.6592   -4.0349   -0.8646 N.pl3     1 <0>        -0.5739
      8 H2          2.2753   -4.7370   -0.6031 H         1 <0>         0.4283
      9 C6          0.4058   -4.2399   -1.4002 C.ar      1 <0>         0.0731
     10 C7         -0.1590   -2.9739   -1.6310 C.ar      1 <0>        -0.0809
     11 C8         -1.4436   -2.8707   -2.1710 C.ar      1 <0>        -0.1537
     12 C9         -2.1488   -4.0022   -2.4700 C.ar      1 <0>        -0.0750
     13 C10        -1.6006   -5.2565   -2.2421 C.ar      1 <0>        -0.1994
     14 C11        -0.3282   -5.3834   -1.7167 C.ar      1 <0>         0.1431
     15 O1          0.1992   -6.6167   -1.4948 O.3       1 <0>        -0.3209
     16 C12        -0.6108   -7.7410   -1.8437 C.3       1 <0>         0.0258
     17 N2         -1.3761   -0.5125    0.0124 N.4       1 <0>        -0.5046
     18 C13        -2.0260   -0.1396    1.2760 C.3       1 <0>        -0.0471
     19 C14        -3.4614   -0.6692    1.2868 C.3       1 <0>         0.1365
     20 H3         -3.4489   -1.7549    1.1913 H         1 <0>         0.1325
     21 C15        -4.1282   -0.2867    2.5830 C.ar      1 <0>        -0.1274
     22 C16        -4.7304    0.9513    2.7115 C.ar      1 <0>        -0.1033
     23 C17        -5.3421    1.3029    3.9000 C.ar      1 <0>        -0.0963
     24 C18        -5.3518    0.4170    4.9612 C.ar      1 <0>        -0.0922
     25 C19        -4.7495   -0.8217    4.8333 C.ar      1 <0>        -0.0311
     26 C20        -4.1426   -1.1754    3.6411 C.ar      1 <0>        -0.0952
     27 Cl1        -4.7613   -1.9347    6.1654 Cl        1 <0>        -0.0491
     28 O2         -4.1863   -0.1032    0.1931 O.3       1 <0>        -0.5435
     29 H4          1.0039    1.9031    0.0027 H         1 <0>         0.1080
     30 H5         -0.5459    1.8868   -0.8726 H         1 <0>         0.0835
     31 H6         -0.5289    1.8773    0.9072 H         1 <0>         0.0801
     32 H7          0.1430   -0.2121   -2.1375 H         1 <0>         0.0949
     33 H8          1.7103   -0.0491   -1.3098 H         1 <0>         0.1184
     34 H9          2.8129   -2.2587   -0.3676 H         1 <0>         0.1798
     35 H10        -1.8783   -1.8987   -2.3513 H         1 <0>         0.1174
     36 H11        -3.1416   -3.9196   -2.8869 H         1 <0>         0.1332
     37 H12        -2.1705   -6.1415   -2.4837 H         1 <0>         0.1390
     38 H13        -1.5384   -7.7120   -1.2719 H         1 <0>         0.0615
     39 H14        -0.8395   -7.7076   -2.9089 H         1 <0>         0.0623
     40 H15        -0.0725   -8.6612   -1.6164 H         1 <0>         0.1073
     41 H16        -1.8879   -0.1129   -0.7598 H         1 <0>         0.4262
     42 H17        -1.4732   -0.5714    2.1102 H         1 <0>         0.1431
     43 H18        -2.0386    0.9461    1.3715 H         1 <0>         0.1397
     44 H19        -4.7224    1.6440    1.8829 H         1 <0>         0.1302
     45 H20        -5.8124    2.2700    3.9997 H         1 <0>         0.1422
     46 H21        -5.8293    0.6921    5.8900 H         1 <0>         0.1428
     47 H22        -3.6760   -2.1441    3.5392 H         1 <0>         0.1378
     48 H23        -4.2382    0.8622    0.2132 H         1 <0>         0.3875
     49 H24        -1.3644   -1.5176   -0.0760 H         1 <0>         0.4299
@<TRIPOS>BOND
     1    1    2 1
     2    1   29 1
     3    1   30 1
     4    1   31 1
     5    2    3 1
     6    2    4 1
     7    2   17 1
     8    4    5 1
     9    4   32 1
    10    4   33 1
    11    5   10 1
    12    5    6 2
    13    6    7 1
    14    6   34 1
    15    7    8 1
    16    7    9 1
    17    9   14 ar
    18    9   10 ar
    19   10   11 ar
    20   11   12 ar
    21   11   35 1
    22   12   13 ar
    23   12   36 1
    24   13   14 ar
    25   13   37 1
    26   14   15 1
    27   15   16 1
    28   16   38 1
    29   16   39 1
    30   16   40 1
    31   17   18 1
    32   17   41 1
    33   17   49 1
    34   18   19 1
    35   18   42 1
    36   18   43 1
    37   19   20 1
    38   19   21 1
    39   19   28 1
    40   21   26 ar
    41   21   22 ar
    42   22   23 ar
    43   22   44 1
    44   23   24 ar
    45   23   45 1
    46   24   25 ar
    47   24   46 1
    48   25   26 ar
    49   25   27 1
    50   26   47 1
    51   28   48 1
@<TRIPOS>MOLECULE
CHEMBL466726
   58    60     0     0     0
SMALL
USER_CHARGES

@<TRIPOS>ATOM
      1 C1          0.0703    1.2990    1.1991 C.ar      1 <0>        -0.1475
      2 C2          1.2368    2.0205    1.0242 C.ar      1 <0>        -0.0765
      3 C3          2.4348    1.3616    0.8269 C.ar      1 <0>        -0.1446
      4 C4          2.4670   -0.0252    0.8048 C.ar      1 <0>         0.1165
      5 C5          1.2953   -0.7468    0.9811 C.ar      1 <0>        -0.2095
      6 C6          0.0997   -0.0832    1.1775 C.ar      1 <0>        -0.0800
      7 O1          3.6443   -0.6757    0.6105 O.3       1 <0>        -0.3028
      8 C7          3.6022   -2.1040    0.5997 C.3       1 <0>         0.0296
      9 C8          5.0113   -2.6541    0.3699 C.3       1 <0>         0.0859
     10 H1          5.4246   -2.2246   -0.5427 H         1 <0>         0.1359
     11 C9          4.9485   -4.1767    0.2339 C.3       1 <0>        -0.0419
     12 N1          6.3014   -4.7049    0.0132 N.4       1 <0>        -0.5035
     13 C10         6.2411   -6.1668   -0.1173 C.3       1 <0>        -0.0077
     14 C11         7.6502   -6.7169   -0.3472 C.3       1 <0>        -0.0966
     15 C12         7.5883   -8.2166   -0.4811 C.ar      1 <0>        -0.1296
     16 C13         7.7037   -9.0149    0.6421 C.ar      1 <0>        -0.0859
     17 C14         7.6474  -10.3897    0.5227 C.ar      1 <0>        -0.1183
     18 C15         7.4743  -10.9702   -0.7269 C.ar      1 <0>         0.1712
     19 C16         7.3583  -10.1657   -1.8529 C.ar      1 <0>        -0.1449
     20 C17         7.4106   -8.7914   -1.7262 C.ar      1 <0>        -0.0866
     21 N2          7.4173  -12.3627   -0.8513 N.am      1 <0>        -0.6806
     22 C18         6.8720  -13.1054    0.1323 C.2       1 <0>         0.5218
     23 O2          6.3450  -12.5631    1.0805 O.2       1 <0>        -0.4935
     24 C19         6.9170  -14.6097    0.0539 C.3       1 <0>        -0.0901
     25 C20         6.2437  -15.1964    1.2677 C.ar      1 <0>         0.1520
     26 C21         5.2126  -16.1021    1.1057 C.ar      1 <0>        -0.1609
     27 C22         4.5992  -16.6365    2.2286 C.ar      1 <0>        -0.0584
     28 C23         5.0477  -16.2383    3.4783 C.ar      1 <0>        -0.1519
     29 C24         6.0853  -15.3271    3.5630 C.ar      1 <0>         0.1810
     30 N3          6.6490  -14.8435    2.4720 N.ar      1 <0>        -0.4556
     31 Cl1         6.6565  -14.8193    5.1217 Cl        1 <0>        -0.0262
     32 O3          5.8441   -2.3088    1.4786 O.3       1 <0>        -0.5435
     33 H2         -0.8646    1.8159    1.3573 H         1 <0>         0.1296
     34 H3          1.2112    3.1000    1.0414 H         1 <0>         0.1352
     35 H4          3.3456    1.9256    0.6896 H         1 <0>         0.1332
     36 H5          1.3177   -1.8264    0.9639 H         1 <0>         0.1234
     37 H6         -0.8127   -0.6445    1.3147 H         1 <0>         0.1285
     38 H7          3.2233   -2.4636    1.5564 H         1 <0>         0.0763
     39 H8          2.9450   -2.4421   -0.2015 H         1 <0>         0.0812
     40 H9          4.5351   -4.6063    1.1464 H         1 <0>         0.1398
     41 H10         4.3132   -4.4401   -0.6118 H         1 <0>         0.1469
     42 H11         6.6840   -4.3073   -0.8315 H         1 <0>         0.4307
     43 H12         5.8277   -6.5963    0.7952 H         1 <0>         0.1338
     44 H13         5.6058   -6.4302   -0.9630 H         1 <0>         0.1342
     45 H14         8.0635   -6.2873   -1.2597 H         1 <0>         0.0961
     46 H15         8.2854   -6.4535    0.4985 H         1 <0>         0.0961
     47 H16         7.8383   -8.5629    1.6137 H         1 <0>         0.1274
     48 H17         7.7383  -11.0127    1.4002 H         1 <0>         0.1421
     49 H18         7.2240  -10.6141   -2.8262 H         1 <0>         0.1325
     50 H19         7.3163   -8.1650   -2.6010 H         1 <0>         0.1283
     51 H20         7.7703  -12.7936   -1.6455 H         1 <0>         0.4160
     52 H21         6.3987  -14.9423   -0.8455 H         1 <0>         0.1202
     53 H22         7.9549  -14.9408    0.0185 H         1 <0>         0.1233
     54 H23         4.8883  -16.3899    0.1166 H         1 <0>         0.1450
     55 H24         3.7907  -17.3460    2.1318 H         1 <0>         0.1501
     56 H25         4.5927  -16.6339    4.3743 H         1 <0>         0.1489
     57 H26         5.5360   -2.6585    2.3258 H         1 <0>         0.3903
     58 H27         6.8894   -4.4611    0.7961 H         1 <0>         0.4336
@<TRIPOS>BOND
     1    1    6 ar
     2    1    2 ar
     3    1   33 1
     4    2    3 ar
     5    2   34 1
     6    3    4 ar
     7    3   35 1
     8    4    5 ar
     9    4    7 1
    10    5    6 ar
    11    5   36 1
    12    6   37 1
    13    7    8 1
    14    8    9 1
    15    8   38 1
    16    8   39 1
    17    9   10 1
    18    9   11 1
    19    9   32 1
    20   11   12 1
    21   11   40 1
    22   11   41 1
    23   12   13 1
    24   12   42 1
    25   12   58 1
    26   13   14 1
    27   13   43 1
    28   13   44 1
    29   14   15 1
    30   14   45 1
    31   14   46 1
    32   15   20 ar
    33   15   16 ar
    34   16   17 ar
    35   16   47 1
    36   17   18 ar
    37   17   48 1
    38   18   19 ar
    39   18   21 1
    40   19   20 ar
    41   19   49 1
    42   20   50 1
    43   21   22 am
    44   21   51 1
    45   22   23 2
    46   22   24 1
    47   24   25 1
    48   24   52 1
    49   24   53 1
    50   25   30 ar
    51   25   26 ar
    52   26   27 ar
    53   26   54 1
    54   27   28 ar
    55   27   55 1
    56   28   29 ar
    57   28   56 1
    58   29   30 ar
    59   29   31 1
    60   32   57 1
@<TRIPOS>MOLECULE
CHEMBL47370
   68    69     0     0     0
SMALL
USER_CHARGES

@<TRIPOS>ATOM
      1 C1         -0.0187    1.5258    0.0104 C.3       1 <0>        -0.1712
      2 C2          0.0021   -0.0041    0.0020 C.3       1 <0>         0.1814
      3 C3         -1.4333   -0.5336    0.0129 C.3       1 <0>        -0.1344
      4 C4         -1.4126   -2.0635    0.0045 C.3       1 <0>        -0.1090
      5 C5         -0.6726   -2.5703    1.2440 C.3       1 <0>        -0.1013
      6 C6          0.7628   -2.0407    1.2331 C.3       1 <0>        -0.1328
      7 C7          0.7421   -0.5109    1.2415 C.3       1 <0>        -0.1220
      8 C8         -0.6518   -4.1002    1.2356 C.3       1 <0>         0.0595
      9 C9         -2.0829   -4.6290    1.1207 C.3       1 <0>        -0.1806
     10 C10         0.1711   -4.5925    0.0434 C.3       1 <0>        -0.1827
     11 N1         -0.0480   -4.5885    2.4825 N.4       1 <0>        -0.4985
     12 C11        -0.0280   -6.0574    2.4744 C.3       1 <0>        -0.0516
     13 C12         0.6009   -6.5661    3.7731 C.3       1 <0>         0.0885
     14 C13         0.7358   -8.0889    3.7122 C.3       1 <0>         0.0297
     15 O1          1.4280   -8.5526    4.8731 O.3       1 <0>        -0.2971
     16 C14         1.6327   -9.8922    4.9754 C.ar      1 <0>         0.1194
     17 C15         1.1817  -10.7424    3.9759 C.ar      1 <0>        -0.2066
     18 C16         1.3915  -12.1035    4.0820 C.ar      1 <0>        -0.0838
     19 C17         2.0503  -12.6190    5.1831 C.ar      1 <0>        -0.1430
     20 C18         2.5002  -11.7741    6.1805 C.ar      1 <0>        -0.0756
     21 C19         2.2979  -10.4113    6.0764 C.ar      1 <0>        -0.0997
     22 C20         2.7942   -9.4901    7.1610 C.3       1 <0>        -0.0466
     23 C21         1.6811   -9.2228    8.1411 C.2       1 <0>        -0.1491
     24 C22         1.8606   -9.4606    9.4168 C.2       1 <0>        -0.1877
     25 O2         -0.2303   -6.2053    4.8781 O.3       1 <0>        -0.5416
     26 N2          0.6878   -0.4765   -1.2033 N.am      1 <0>        -0.7222
     27 C23         0.2113   -0.1507   -2.4212 C.2       1 <0>         0.5127
     28 O3         -0.7852    0.5337   -2.5193 O.2       1 <0>        -0.4977
     29 C24         0.9167   -0.6367   -3.6611 C.3       1 <0>        -0.1250
     30 Br1        -0.0342    0.0146   -5.2538 Br        1 <0>        -0.0886
     31 H1          1.0039    1.9031    0.0027 H         1 <0>         0.0594
     32 H2         -0.5459    1.8868   -0.8726 H         1 <0>         0.0839
     33 H3         -0.5289    1.8773    0.9072 H         1 <0>         0.0675
     34 H4         -1.9435   -0.1821    0.9097 H         1 <0>         0.0766
     35 H5         -1.9605   -0.1726   -0.8702 H         1 <0>         0.0985
     36 H6         -2.4352   -2.4408    0.0122 H         1 <0>         0.0782
     37 H7         -0.9024   -2.4150   -0.8923 H         1 <0>         0.0741
     38 H8         -1.1828   -2.2188    2.1408 H         1 <0>         0.0982
     39 H9          1.2900   -2.4018    2.1162 H         1 <0>         0.0630
     40 H10         1.2730   -2.3923    0.3363 H         1 <0>         0.0808
     41 H11         1.7647   -0.1336    1.2338 H         1 <0>         0.0825
     42 H12         0.2319   -0.1594    2.1383 H         1 <0>         0.0880
     43 H13        -2.5310   -4.2666    0.1955 H         1 <0>         0.1107
     44 H14        -2.0681   -5.7189    1.1147 H         1 <0>         0.0814
     45 H15        -2.6692   -4.2782    1.9700 H         1 <0>         0.0845
     46 H16         1.1906   -4.2157    0.1252 H         1 <0>         0.0856
     47 H17         0.1859   -5.6824    0.0374 H         1 <0>         0.0821
     48 H18        -0.2770   -4.2301   -0.8818 H         1 <0>         0.1086
     49 H19         0.8958   -4.2398    2.5583 H         1 <0>         0.4256
     50 H20        -1.0476   -6.4341    2.3925 H         1 <0>         0.1427
     51 H21         0.5582   -6.4081    1.6251 H         1 <0>         0.1475
     52 H22         1.5869   -6.1187    3.8989 H         1 <0>         0.1331
     53 H23        -0.2557   -8.5403    3.6758 H         1 <0>         0.0759
     54 H24         1.2954   -8.3686    2.8196 H         1 <0>         0.0798
     55 H25         0.6668  -10.3403    3.1159 H         1 <0>         0.1232
     56 H26         1.0403  -12.7657    3.3045 H         1 <0>         0.1279
     57 H27         2.2133  -13.6836    5.2642 H         1 <0>         0.1295
     58 H28         3.0142  -12.1792    7.0397 H         1 <0>         0.1334
     59 H29         3.6309   -9.9576    7.6800 H         1 <0>         0.0780
     60 H30         3.1214   -8.5498    6.7174 H         1 <0>         0.0825
     61 H31         0.7355   -8.8352    7.7919 H         1 <0>         0.1061
     62 H32         2.8062   -9.8483    9.7661 H         1 <0>         0.0983
     63 H33         1.0629   -9.2691   10.1193 H         1 <0>         0.0994
     64 H34        -1.1250   -6.5694    4.8326 H         1 <0>         0.3898
     65 H35         1.4848   -1.0239   -1.1249 H         1 <0>         0.3977
     66 H36         1.9393   -0.2594   -3.6688 H         1 <0>         0.1275
     67 H37         0.9314   -1.7265   -3.6671 H         1 <0>         0.1236
     68 H38        -0.5906   -4.2639    3.2687 H         1 <0>         0.4319
@<TRIPOS>BOND
     1    1    2 1
     2    1   31 1
     3    1   32 1
     4    1   33 1
     5    2    7 1
     6    2    3 1
     7    2   26 1
     8    3    4 1
     9    3   34 1
    10    3   35 1
    11    4    5 1
    12    4   36 1
    13    4   37 1
    14    5    6 1
    15    5    8 1
    16    5   38 1
    17    6    7 1
    18    6   39 1
    19    6   40 1
    20    7   41 1
    21    7   42 1
    22    8    9 1
    23    8   10 1
    24    8   11 1
    25    9   43 1
    26    9   44 1
    27    9   45 1
    28   10   46 1
    29   10   47 1
    30   10   48 1
    31   11   12 1
    32   11   49 1
    33   11   68 1
    34   12   13 1
    35   12   50 1
    36   12   51 1
    37   13   14 1
    38   13   25 1
    39   13   52 1
    40   14   15 1
    41   14   53 1
    42   14   54 1
    43   15   16 1
    44   16   21 ar
    45   16   17 ar
    46   17   18 ar
    47   17   55 1
    48   18   19 ar
    49   18   56 1
    50   19   20 ar
    51   19   57 1
    52   20   21 ar
    53   20   58 1
    54   21   22 1
    55   22   23 1
    56   22   59 1
    57   22   60 1
    58   23   24 2
    59   23   61 1
    60   24   62 1
    61   24   63 1
    62   25   64 1
    63   26   27 am
    64   26   65 1
    65   27   28 2
    66   27   29 1
    67   29   30 1
    68   29   66 1
    69   29   67 1
@<TRIPOS>MOLECULE
CHEMBL47370__1
   68    69     0     0     0
SMALL
USER_CHARGES

@<TRIPOS>ATOM
      1 C1         -0.0187    1.5258    0.0104 C.3       1 <0>        -0.1712
      2 C2          0.0021   -0.0041    0.0020 C.3       1 <0>         0.1813
      3 C3         -1.4333   -0.5336    0.0129 C.3       1 <0>        -0.1344
      4 C4         -1.4126   -2.0635    0.0045 C.3       1 <0>        -0.1090
      5 C5         -0.6726   -2.5703    1.2440 C.3       1 <0>        -0.1013
      6 C6          0.7628   -2.0407    1.2331 C.3       1 <0>        -0.1327
      7 C7          0.7421   -0.5109    1.2415 C.3       1 <0>        -0.1219
      8 C8         -0.6518   -4.1002    1.2356 C.3       1 <0>         0.0594
      9 C9         -2.0829   -4.6290    1.1207 C.3       1 <0>        -0.1813
     10 C10         0.1711   -4.5925    0.0434 C.3       1 <0>        -0.1822
     11 N1         -0.0480   -4.5885    2.4825 N.4       1 <0>        -0.4981
     12 C11        -0.0280   -6.0574    2.4744 C.3       1 <0>        -0.0517
     13 C12         0.6009   -6.5661    3.7731 C.3       1 <0>         0.0881
     14 C13         0.6217   -8.0959    3.7647 C.3       1 <0>         0.0298
     15 O1          1.1009   -8.5727    5.0236 O.3       1 <0>        -0.2970
     16 C14         1.1817   -9.9199    5.1830 C.ar      1 <0>         0.1194
     17 C15         0.8127  -10.7656    4.1467 C.ar      1 <0>        -0.2066
     18 C16         0.8962  -12.1345    4.3109 C.ar      1 <0>        -0.0838
     19 C17         1.3470  -12.6623    5.5070 C.ar      1 <0>        -0.1431
     20 C18         1.7148  -11.8219    6.5412 C.ar      1 <0>        -0.0756
     21 C19         1.6386  -10.4518    6.3798 C.ar      1 <0>        -0.0995
     22 C20         2.0456   -9.5361    7.5054 C.3       1 <0>        -0.0476
     23 C21         0.8281   -9.1537    8.3071 C.2       1 <0>        -0.1501
     24 C22         0.8031   -9.3629    9.6001 C.2       1 <0>        -0.1868
     25 O2          1.9375   -6.0721    3.8804 O.3       1 <0>        -0.5426
     26 N2          0.6878   -0.4765   -1.2033 N.am      1 <0>        -0.7221
     27 C23         0.2113   -0.1507   -2.4212 C.2       1 <0>         0.5127
     28 O3         -0.7852    0.5337   -2.5193 O.2       1 <0>        -0.4977
     29 C24         0.9167   -0.6367   -3.6611 C.3       1 <0>        -0.1250
     30 Br1        -0.0342    0.0146   -5.2538 Br        1 <0>        -0.0886
     31 H1          1.0039    1.9031    0.0027 H         1 <0>         0.0595
     32 H2         -0.5459    1.8868   -0.8726 H         1 <0>         0.0839
     33 H3         -0.5289    1.8773    0.9072 H         1 <0>         0.0674
     34 H4         -1.9435   -0.1821    0.9097 H         1 <0>         0.0766
     35 H5         -1.9605   -0.1726   -0.8702 H         1 <0>         0.0985
     36 H6         -2.4352   -2.4408    0.0122 H         1 <0>         0.0783
     37 H7         -0.9024   -2.4150   -0.8923 H         1 <0>         0.0741
     38 H8         -1.1828   -2.2188    2.1408 H         1 <0>         0.0981
     39 H9          1.2900   -2.4018    2.1162 H         1 <0>         0.0640
     40 H10         1.2730   -2.3923    0.3363 H         1 <0>         0.0804
     41 H11         1.7647   -0.1336    1.2338 H         1 <0>         0.0826
     42 H12         0.2319   -0.1594    2.1383 H         1 <0>         0.0878
     43 H13        -2.5310   -4.2666    0.1955 H         1 <0>         0.1108
     44 H14        -2.0681   -5.7189    1.1147 H         1 <0>         0.0820
     45 H15        -2.6692   -4.2782    1.9700 H         1 <0>         0.0847
     46 H16         1.1906   -4.2157    0.1252 H         1 <0>         0.0854
     47 H17         0.1859   -5.6824    0.0374 H         1 <0>         0.0816
     48 H18        -0.2770   -4.2301   -0.8818 H         1 <0>         0.1086
     49 H19         0.8958   -4.2398    2.5583 H         1 <0>         0.4290
     50 H20        -1.0476   -6.4341    2.3925 H         1 <0>         0.1488
     51 H21         0.5582   -6.4081    1.6251 H         1 <0>         0.1414
     52 H22         0.0147   -6.2153    4.6224 H         1 <0>         0.1348
     53 H23        -0.3870   -8.4720    3.5938 H         1 <0>         0.0803
     54 H24         1.2795   -8.4460    2.9692 H         1 <0>         0.0755
     55 H25         0.4602  -10.3538    3.2125 H         1 <0>         0.1232
     56 H26         0.6088  -12.7932    3.5048 H         1 <0>         0.1279
     57 H27         1.4115  -13.7330    5.6335 H         1 <0>         0.1295
     58 H28         2.0662  -12.2366    7.4744 H         1 <0>         0.1334
     59 H29         2.7593  -10.0484    8.1506 H         1 <0>         0.0782
     60 H30         2.5068   -8.6380    7.0945 H         1 <0>         0.0844
     61 H31        -0.0237   -8.7073    7.8157 H         1 <0>         0.1044
     62 H32         1.6549   -9.8094   10.0915 H         1 <0>         0.0989
     63 H33        -0.0694   -9.0889   10.1746 H         1 <0>         0.0993
     64 H34         2.5172   -6.3457    3.1564 H         1 <0>         0.3887
     65 H35         1.4848   -1.0239   -1.1249 H         1 <0>         0.3977
     66 H36         1.9393   -0.2594   -3.6688 H         1 <0>         0.1275
     67 H37         0.9314   -1.7265   -3.6671 H         1 <0>         0.1236
     68 H38        -0.5906   -4.2639    3.2687 H         1 <0>         0.4285
@<TRIPOS>BOND
     1    1    2 1
     2    1   31 1
     3    1   32 1
     4    1   33 1
     5    2    7 1
     6    2    3 1
     7    2   26 1
     8    3    4 1
     9    3   34 1
    10    3   35 1
    11    4    5 1
    12    4   36 1
    13    4   37 1
    14    5    6 1
    15    5    8 1
    16    5   38 1
    17    6    7 1
    18    6   39 1
    19    6   40 1
    20    7   41 1
    21    7   42 1
    22    8    9 1
    23    8   10 1
    24    8   11 1
    25    9   43 1
    26    9   44 1
    27    9   45 1
    28   10   46 1
    29   10   47 1
    30   10   48 1
    31   11   12 1
    32   11   49 1
    33   11   68 1
    34   12   13 1
    35   12   50 1
    36   12   51 1
    37   13   14 1
    38   13   25 1
    39   13   52 1
    40   14   15 1
    41   14   53 1
    42   14   54 1
    43   15   16 1
    44   16   21 ar
    45   16   17 ar
    46   17   18 ar
    47   17   55 1
    48   18   19 ar
    49   18   56 1
    50   19   20 ar
    51   19   57 1
    52   20   21 ar
    53   20   58 1
    54   21   22 1
    55   22   23 1
    56   22   59 1
    57   22   60 1
    58   23   24 2
    59   23   61 1
    60   24   62 1
    61   24   63 1
    62   25   64 1
    63   26   27 am
    64   26   65 1
    65   27   28 2
    66   27   29 1
    67   29   30 1
    68   29   66 1
    69   29   67 1
@<TRIPOS>MOLECULE
CHEMBL419085
   55    56     0     0     0
SMALL
USER_CHARGES

@<TRIPOS>ATOM
      1 C1         -0.0187    1.5258    0.0104 C.3       1 <0>        -0.1823
      2 C2          0.0021   -0.0041    0.0020 C.3       1 <0>         0.0304
      3 H1         -1.0205   -0.3814    0.0098 H         1 <0>         0.1428
      4 C3          0.7421   -0.5109    1.2415 C.3       1 <0>        -0.0400
      5 C4          0.6567   -2.0144    1.2978 C.2       1 <0>        -0.0542
      6 N1          1.4801   -2.8958    0.7873 N.2       1 <0>        -0.5000
      7 C5          1.2689   -4.1899    0.9214 C.2       1 <0>         0.0071
      8 C6          0.1612   -4.5644    1.6113 C.2       1 <0>        -0.1284
      9 S1         -0.5159   -2.9682    2.0380 S.3       1 <0>         0.1445
     10 C7         -0.3517   -5.9446    1.9324 C.3       1 <0>        -0.0460
     11 C8          0.2364   -6.4097    3.2661 C.3       1 <0>        -0.1148
     12 C9         -0.2844   -7.8109    3.5921 C.3       1 <0>        -0.0933
     13 C10         0.3038   -8.2761    4.9258 C.3       1 <0>        -0.1846
     14 C11        -0.2092   -9.6562    5.2469 C.2       1 <0>         0.4868
     15 O1         -0.9743  -10.2159    4.4802 O.co2     1 <0>        -0.6991
     16 O2          0.1409  -10.2131    6.2735 O.co2     1 <0>        -0.7035
     17 N2          0.6897   -0.4778   -1.2066 N.4       1 <0>        -0.5012
     18 C12        -0.0856   -0.0931   -2.3936 C.3       1 <0>        -0.0458
     19 C13         0.6305   -0.5866   -3.6524 C.3       1 <0>         0.0863
     20 H2          0.7239   -1.6719   -3.6155 H         1 <0>         0.1350
     21 C14        -0.1769   -0.1859   -4.8887 C.3       1 <0>         0.0315
     22 O3          0.4292   -0.7457   -6.0554 O.3       1 <0>        -0.3016
     23 C15        -0.1685   -0.4834   -7.2474 C.ar      1 <0>         0.1186
     24 C16        -1.3115    0.3016   -7.2937 C.ar      1 <0>        -0.2098
     25 C17        -1.9169    0.5672   -8.5067 C.ar      1 <0>        -0.0803
     26 C18        -1.3850    0.0511   -9.6739 C.ar      1 <0>        -0.1493
     27 C19        -0.2462   -0.7319   -9.6304 C.ar      1 <0>        -0.0768
     28 C20         0.3665   -0.9953   -8.4206 C.ar      1 <0>        -0.1449
     29 O4          1.9312    0.0013   -3.7219 O.3       1 <0>        -0.5405
     30 H3          1.0039    1.9031    0.0027 H         1 <0>         0.0870
     31 H4         -0.5459    1.8868   -0.8726 H         1 <0>         0.0842
     32 H5         -0.5289    1.8773    0.9072 H         1 <0>         0.1116
     33 H6          1.7879   -0.2080    1.1895 H         1 <0>         0.1176
     34 H7          0.2852   -0.0874    2.1360 H         1 <0>         0.1350
     35 H8          1.9459   -4.9191    0.5013 H         1 <0>         0.1824
     36 H9         -1.4391   -5.9206    2.0035 H         1 <0>         0.0888
     37 H10        -0.0543   -6.6354    1.1435 H         1 <0>         0.1004
     38 H11         1.3238   -6.4337    3.1950 H         1 <0>         0.0629
     39 H12        -0.0610   -5.7189    4.0550 H         1 <0>         0.0597
     40 H13        -1.3718   -7.7870    3.6632 H         1 <0>         0.0626
     41 H14         0.0130   -8.5018    2.8032 H         1 <0>         0.0636
     42 H15         1.3912   -8.3001    4.8547 H         1 <0>         0.0558
     43 H16         0.0064   -7.5853    5.7147 H         1 <0>         0.0553
     44 H17         1.6080   -0.0627   -1.2556 H         1 <0>         0.4321
     45 H18        -1.0777   -0.5415   -2.3406 H         1 <0>         0.1456
     46 H19        -0.1790    0.9922   -2.4305 H         1 <0>         0.1421
     47 H20        -1.1963   -0.5599   -4.7938 H         1 <0>         0.0816
     48 H21        -0.1950    0.9006   -4.9744 H         1 <0>         0.0764
     49 H22        -1.7278    0.7043   -6.3822 H         1 <0>         0.1238
     50 H23        -2.8068    1.1781   -8.5433 H         1 <0>         0.1278
     51 H24        -1.8599    0.2596  -10.6212 H         1 <0>         0.1286
     52 H25         0.1672   -1.1341  -10.5434 H         1 <0>         0.1344
     53 H26         1.2586   -1.6032   -8.3876 H         1 <0>         0.1334
     54 H27         1.9246    0.9676   -3.7575 H         1 <0>         0.3876
     55 H28         0.7761   -1.4825   -1.1724 H         1 <0>         0.4333
@<TRIPOS>BOND
     1    1    2 1
     2    1   30 1
     3    1   31 1
     4    1   32 1
     5    2    3 1
     6    2    4 1
     7    2   17 1
     8    4    5 1
     9    4   33 1
    10    4   34 1
    11    5    9 1
    12    5    6 2
    13    6    7 1
    14    7    8 2
    15    7   35 1
    16    8    9 1
    17    8   10 1
    18   10   11 1
    19   10   36 1
    20   10   37 1
    21   11   12 1
    22   11   38 1
    23   11   39 1
    24   12   13 1
    25   12   40 1
    26   12   41 1
    27   13   14 1
    28   13   42 1
    29   13   43 1
    30   14   15 2
    31   14   16 1
    32   17   18 1
    33   17   44 1
    34   17   55 1
    35   18   19 1
    36   18   45 1
    37   18   46 1
    38   19   20 1
    39   19   21 1
    40   19   29 1
    41   21   22 1
    42   21   47 1
    43   21   48 1
    44   22   23 1
    45   23   28 ar
    46   23   24 ar
    47   24   25 ar
    48   24   49 1
    49   25   26 ar
    50   25   50 1
    51   26   27 ar
    52   26   51 1
    53   27   28 ar
    54   27   52 1
    55   28   53 1
    56   29   54 1
@<TRIPOS>MOLECULE
CHEMBL12674
   63    65     0     0     0
SMALL
USER_CHARGES

@<TRIPOS>ATOM
      1 C1         -0.0167    1.3781    0.0096 C.ar      1 <0>        -0.1269
      2 C2          1.1709    2.0855    0.0021 C.ar      1 <0>        -0.1183
      3 C3          2.3773    1.4107   -0.0130 C.ar      1 <0>        -0.1178
      4 C4          2.3960    0.0285   -0.0201 C.ar      1 <0>        -0.0700
      5 C5          1.2084   -0.6789   -0.0117 C.ar      1 <0>        -0.1174
      6 C6          0.0021   -0.0041    0.0020 C.ar      1 <0>        -0.1179
      7 C7          3.7112   -0.7071   -0.0376 C.3       1 <0>        -0.0737
      8 C8          4.1714   -0.9633    1.3989 C.3       1 <0>        -0.5894
      9 S1          5.7544   -1.8488    1.3779 S.o2      1 <0>         2.5321
     10 O1          5.5735   -3.1627    0.8679 O.2       1 <0>        -1.0227
     11 O2          6.7790   -1.0077    0.8660 O.2       1 <0>        -1.0252
     12 N1          6.1426   -2.0645    2.9733 N.2       1 <0>        -1.0925
     13 C9          7.3232   -2.7246    3.3217 C.ar      1 <0>         0.2998
     14 C10         8.1757   -3.1957    2.3312 C.ar      1 <0>        -0.2583
     15 C11         9.3424   -3.8475    2.6792 C.ar      1 <0>        -0.0508
     16 C12         9.6622   -4.0318    4.0119 C.ar      1 <0>        -0.2388
     17 C13         8.8158   -3.5641    5.0004 C.ar      1 <0>        -0.0646
     18 C14         7.6503   -2.9064    4.6594 C.ar      1 <0>        -0.1850
     19 C15        10.9358   -4.7444    4.3878 C.3       1 <0>        -0.0705
     20 C16        12.0699   -3.7260    4.5205 C.3       1 <0>        -0.0108
     21 N2         13.3113   -4.4207    4.8869 N.4       1 <0>        -0.5038
     22 C17        14.4002   -3.4429    5.0143 C.3       1 <0>        -0.0418
     23 C18        15.6932   -4.1664    5.3960 C.3       1 <0>         0.0863
     24 H1         15.9453   -4.8922    4.6228 H         1 <0>         0.1348
     25 C19        16.8274   -3.1480    5.5287 C.3       1 <0>         0.0285
     26 O3         18.0575   -3.8339    5.7702 O.3       1 <0>        -0.3012
     27 C20        19.1728   -3.0692    5.9136 C.ar      1 <0>         0.1123
     28 C21        19.0821   -1.6878    5.8291 C.ar      1 <0>        -0.1913
     29 C22        20.2150   -0.9110    5.9748 C.ar      1 <0>        -0.1052
     30 C23        21.4432   -1.5125    6.2060 C.ar      1 <0>         0.0763
     31 C24        21.5338   -2.8939    6.2915 C.ar      1 <0>        -0.1034
     32 C25        20.4002   -3.6704    6.1501 C.ar      1 <0>        -0.1279
     33 O4         22.5586   -0.7479    6.3485 O.3       1 <0>        -0.4963
     34 O5         15.5112   -4.8417    6.6421 O.3       1 <0>        -0.5445
     35 H2         -0.9591    1.9053    0.0259 H         1 <0>         0.1207
     36 H3          1.1563    3.1654    0.0076 H         1 <0>         0.1219
     37 H4          3.3051    1.9634   -0.0196 H         1 <0>         0.1231
     38 H5          1.2231   -1.7588   -0.0176 H         1 <0>         0.1236
     39 H6         -0.9258   -0.5567    0.0082 H         1 <0>         0.1222
     40 H7          3.5884   -1.6586   -0.5549 H         1 <0>         0.0837
     41 H8          4.4573   -0.1052   -0.5563 H         1 <0>         0.0833
     42 H9          4.2941   -0.0118    1.9163 H         1 <0>         0.1233
     43 H10         3.4252   -1.5652    1.9176 H         1 <0>         0.1239
     44 H11         7.9261   -3.0526    1.2902 H         1 <0>         0.1046
     45 H12        10.0056   -4.2140    1.9097 H         1 <0>         0.1002
     46 H13         9.0685   -3.7098    6.0403 H         1 <0>         0.1032
     47 H14         6.9919   -2.5374    5.4319 H         1 <0>         0.1152
     48 H15        10.7969   -5.2595    5.3383 H         1 <0>         0.0802
     49 H16        11.1878   -5.4702    3.6146 H         1 <0>         0.0793
     50 H17        12.2087   -3.2109    3.5700 H         1 <0>         0.1310
     51 H18        11.8179   -3.0002    5.2937 H         1 <0>         0.1309
     52 H19        13.1828   -4.8975    5.7668 H         1 <0>         0.4300
     53 H20        14.5391   -2.9278    4.0638 H         1 <0>         0.1454
     54 H21        14.1482   -2.7171    5.7875 H         1 <0>         0.1381
     55 H22        16.9077   -2.5715    4.6071 H         1 <0>         0.0826
     56 H23        16.6167   -2.4759    6.3605 H         1 <0>         0.0770
     57 H24        18.1257   -1.2194    5.6490 H         1 <0>         0.1302
     58 H25        20.1445    0.1646    5.9082 H         1 <0>         0.1348
     59 H26        22.4902   -3.3622    6.4712 H         1 <0>         0.1401
     60 H27        20.4701   -4.7458    6.2204 H         1 <0>         0.1382
     61 H28        22.7392   -0.4818    7.2605 H         1 <0>         0.3922
     62 H29        15.2842   -4.2561    7.3774 H         1 <0>         0.3893
     63 H30        13.5446   -5.0925    4.1712 H         1 <0>         0.4278
@<TRIPOS>BOND
     1    1    6 ar
     2    1    2 ar
     3    1   35 1
     4    2    3 ar
     5    2   36 1
     6    3    4 ar
     7    3   37 1
     8    4    5 ar
     9    4    7 1
    10    5    6 ar
    11    5   38 1
    12    6   39 1
    13    7    8 1
    14    7   40 1
    15    7   41 1
    16    8    9 1
    17    8   42 1
    18    8   43 1
    19    9   10 2
    20    9   11 2
    21    9   12 1
    22   12   13 1
    23   13   18 ar
    24   13   14 ar
    25   14   15 ar
    26   14   44 1
    27   15   16 ar
    28   15   45 1
    29   16   17 ar
    30   16   19 1
    31   17   18 ar
    32   17   46 1
    33   18   47 1
    34   19   20 1
    35   19   48 1
    36   19   49 1
    37   20   21 1
    38   20   50 1
    39   20   51 1
    40   21   22 1
    41   21   52 1
    42   21   63 1
    43   22   23 1
    44   22   53 1
    45   22   54 1
    46   23   24 1
    47   23   25 1
    48   23   34 1
    49   25   26 1
    50   25   55 1
    51   25   56 1
    52   26   27 1
    53   27   32 ar
    54   27   28 ar
    55   28   29 ar
    56   28   57 1
    57   29   30 ar
    58   29   58 1
    59   30   31 ar
    60   30   33 1
    61   31   32 ar
    62   31   59 1
    63   32   60 1
    64   33   61 1
    65   34   62 1
@<TRIPOS>MOLECULE
CHEMBL1083670
   54    55     0     0     0
SMALL
USER_CHARGES

@<TRIPOS>ATOM
      1 C1         -0.0187    1.5258    0.0104 C.3       1 <0>        -0.1471
      2 C2          0.0021   -0.0041    0.0020 C.3       1 <0>        -0.0498
      3 C3          0.7421   -0.5109    1.2415 C.3       1 <0>        -0.1465
      4 C4         -1.4117   -0.5257    0.0127 C.ar      1 <0>        -0.0936
      5 C5         -2.2592   -0.2048    1.0557 C.ar      1 <0>        -0.0750
      6 C6         -3.5561   -0.6834    1.0663 C.ar      1 <0>        -0.1385
      7 C7         -4.0087   -1.4838    0.0335 C.ar      1 <0>        -0.0856
      8 C8         -3.1656   -1.8071   -1.0117 C.ar      1 <0>        -0.2060
      9 C9         -1.8651   -1.3237   -1.0273 C.ar      1 <0>         0.1122
     10 O1         -1.0353   -1.6358   -2.0574 O.3       1 <0>        -0.2985
     11 C10        -1.5698   -2.4619   -3.0937 C.3       1 <0>         0.0299
     12 C11        -0.4971   -2.7036   -4.1575 C.3       1 <0>         0.0854
     13 C12        -1.1042   -3.4825   -5.3261 C.3       1 <0>        -0.0475
     14 N1         -0.0743   -3.7146   -6.3476 N.4       1 <0>        -0.5000
     15 C13        -0.6571   -4.4624   -7.4696 C.3       1 <0>         0.0141
     16 C14        -1.0667   -5.8600   -6.9958 C.3       1 <0>        -0.1734
     17 C15        -1.5992   -6.6605   -8.1862 C.3       1 <0>        -0.0026
     18 N2         -0.5536   -6.7761   -9.2098 N.4       1 <0>        -0.3901
     19 C16        -0.2067   -5.4443   -9.7202 C.3       1 <0>        -0.0025
     20 C17         0.3794   -4.5970   -8.5888 C.3       1 <0>        -0.1715
     21 C18        -1.0428   -7.6105  -10.3154 C.3       1 <0>        -0.0510
     22 O2          0.5761   -3.4568   -3.5893 O.3       1 <0>        -0.5405
     23 H1          1.0039    1.9031    0.0027 H         1 <0>         0.0620
     24 H2         -0.5459    1.8868   -0.8726 H         1 <0>         0.0534
     25 H3         -0.5289    1.8773    0.9072 H         1 <0>         0.0599
     26 H4          0.5123   -0.3556   -0.8948 H         1 <0>         0.0805
     27 H5          0.2319   -0.1594    2.1383 H         1 <0>         0.0595
     28 H6          0.7568   -1.6008    1.2356 H         1 <0>         0.0537
     29 H7          1.7647   -0.1336    1.2338 H         1 <0>         0.0620
     30 H8         -1.9081    0.4202    1.8635 H         1 <0>         0.1352
     31 H9         -4.2168   -0.4320    1.8828 H         1 <0>         0.1312
     32 H10        -5.0222   -1.8568    0.0443 H         1 <0>         0.1284
     33 H11        -3.5195   -2.4323   -1.8181 H         1 <0>         0.1203
     34 H12        -1.8844   -3.4163   -2.6715 H         1 <0>         0.0749
     35 H13        -2.4271   -1.9654   -3.5483 H         1 <0>         0.0804
     36 H14        -0.1190   -1.7463   -4.5163 H         1 <0>         0.1390
     37 H15        -1.4822   -4.4398   -4.9673 H         1 <0>         0.1411
     38 H16        -1.9228   -2.9080   -5.7595 H         1 <0>         0.1527
     39 H17         0.2757   -2.8284   -6.6797 H         1 <0>         0.4412
     40 H18        -1.5325   -3.9326   -7.8452 H         1 <0>         0.1582
     41 H19        -0.2007   -6.3692   -6.5729 H         1 <0>         0.1146
     42 H20        -1.8451   -5.7737   -6.2377 H         1 <0>         0.1352
     43 H21        -1.8919   -7.6559   -7.8523 H         1 <0>         0.1529
     44 H22        -2.4652   -6.1505   -8.6081 H         1 <0>         0.1425
     45 H23         0.5286   -5.5419  -10.5189 H         1 <0>         0.1537
     46 H24        -1.1025   -4.9603  -10.1095 H         1 <0>         0.1426
     47 H25         0.6346   -3.6080   -8.9694 H         1 <0>         0.1392
     48 H26         1.2754   -5.0800   -8.1990 H         1 <0>         0.1143
     49 H27        -1.9301   -7.1517  -10.7518 H         1 <0>         0.1283
     50 H28        -0.2670   -7.6970  -11.0761 H         1 <0>         0.1331
     51 H29        -1.2945   -8.6019   -9.9386 H         1 <0>         0.1327
     52 H30         0.3120   -4.3224   -3.2487 H         1 <0>         0.3895
     53 H31         0.2658   -7.2040   -8.8053 H         1 <0>         0.4296
     54 H32         0.6835   -4.2464   -5.9464 H         1 <0>         0.4361
@<TRIPOS>BOND
     1    1    2 1
     2    1   23 1
     3    1   24 1
     4    1   25 1
     5    2    3 1
     6    2    4 1
     7    2   26 1
     8    3   27 1
     9    3   28 1
    10    3   29 1
    11    4    9 ar
    12    4    5 ar
    13    5    6 ar
    14    5   30 1
    15    6    7 ar
    16    6   31 1
    17    7    8 ar
    18    7   32 1
    19    8    9 ar
    20    8   33 1
    21    9   10 1
    22   10   11 1
    23   11   12 1
    24   11   34 1
    25   11   35 1
    26   12   13 1
    27   12   22 1
    28   12   36 1
    29   13   14 1
    30   13   37 1
    31   13   38 1
    32   14   15 1
    33   14   39 1
    34   14   54 1
    35   15   20 1
    36   15   16 1
    37   15   40 1
    38   16   17 1
    39   16   41 1
    40   16   42 1
    41   17   18 1
    42   17   43 1
    43   17   44 1
    44   18   19 1
    45   18   21 1
    46   18   53 1
    47   19   20 1
    48   19   45 1
    49   19   46 1
    50   20   47 1
    51   20   48 1
    52   21   49 1
    53   21   50 1
    54   21   51 1
    55   22   52 1
@<TRIPOS>MOLECULE
CHEMBL1083670__1
   53    54     0     0     0
SMALL
USER_CHARGES

@<TRIPOS>ATOM
      1 C1         -0.0187    1.5258    0.0104 C.3       1 <0>        -0.1458
      2 C2          0.0021   -0.0041    0.0020 C.3       1 <0>        -0.0508
      3 C3          0.7421   -0.5109    1.2415 C.3       1 <0>        -0.1452
      4 C4         -1.4117   -0.5257    0.0127 C.ar      1 <0>        -0.0965
      5 C5         -2.2592   -0.2048    1.0557 C.ar      1 <0>        -0.0765
      6 C6         -3.5561   -0.6834    1.0663 C.ar      1 <0>        -0.1432
      7 C7         -4.0087   -1.4838    0.0335 C.ar      1 <0>        -0.0853
      8 C8         -3.1656   -1.8071   -1.0117 C.ar      1 <0>        -0.2060
      9 C9         -1.8651   -1.3237   -1.0273 C.ar      1 <0>         0.1173
     10 O1         -1.0353   -1.6358   -2.0574 O.3       1 <0>        -0.2989
     11 C10        -1.5698   -2.4619   -3.0937 C.3       1 <0>         0.0298
     12 C11        -0.4971   -2.7036   -4.1575 C.3       1 <0>         0.0873
     13 C12        -1.1042   -3.4825   -5.3261 C.3       1 <0>        -0.0453
     14 N1         -0.0743   -3.7146   -6.3476 N.4       1 <0>        -0.4999
     15 C13        -0.6571   -4.4624   -7.4696 C.3       1 <0>         0.0232
     16 C14        -1.0683   -5.8590   -6.9950 C.3       1 <0>        -0.1381
     17 C15        -1.6184   -6.6541   -8.1813 C.3       1 <0>         0.0540
     18 N2         -0.5892   -6.7551   -9.2239 N.3       1 <0>        -0.5458
     19 C16        -0.2126   -5.4285   -9.7286 C.3       1 <0>         0.0542
     20 C17         0.3795   -4.5968   -8.5885 C.3       1 <0>        -0.1381
     21 C18        -1.0329   -7.6283  -10.3187 C.3       1 <0>         0.0206
     22 O2          0.5761   -3.4568   -3.5893 O.3       1 <0>        -0.5424
     23 H1          1.0039    1.9031    0.0027 H         1 <0>         0.0608
     24 H2         -0.5459    1.8868   -0.8726 H         1 <0>         0.0536
     25 H3         -0.5289    1.8773    0.9072 H         1 <0>         0.0582
     26 H4          0.5123   -0.3556   -0.8948 H         1 <0>         0.0824
     27 H5          0.2319   -0.1594    2.1383 H         1 <0>         0.0578
     28 H6          0.7568   -1.6008    1.2356 H         1 <0>         0.0543
     29 H7          1.7647   -0.1336    1.2338 H         1 <0>         0.0608
     30 H8         -1.9081    0.4202    1.8635 H         1 <0>         0.1328
     31 H9         -4.2168   -0.4320    1.8828 H         1 <0>         0.1287
     32 H10        -5.0222   -1.8568    0.0443 H         1 <0>         0.1273
     33 H11        -3.5195   -2.4323   -1.8181 H         1 <0>         0.1226
     34 H12        -1.8844   -3.4163   -2.6715 H         1 <0>         0.0755
     35 H13        -2.4271   -1.9654   -3.5483 H         1 <0>         0.0801
     36 H14        -0.1190   -1.7463   -4.5163 H         1 <0>         0.1352
     37 H15        -1.4822   -4.4398   -4.9673 H         1 <0>         0.1400
     38 H16        -1.9228   -2.9080   -5.7595 H         1 <0>         0.1460
     39 H17         0.2757   -2.8284   -6.6797 H         1 <0>         0.4308
     40 H18        -1.5321   -3.9321   -7.8454 H         1 <0>         0.1377
     41 H19        -0.2002   -6.3736   -6.5832 H         1 <0>         0.0982
     42 H20        -1.8376   -5.7708   -6.2279 H         1 <0>         0.0909
     43 H21        -1.8988   -7.6539   -7.8497 H         1 <0>         0.0980
     44 H22        -2.4947   -6.1461   -8.5840 H         1 <0>         0.0469
     45 H23         0.5280   -5.5381  -10.5207 H         1 <0>         0.0990
     46 H24        -1.0955   -4.9263  -10.1240 H         1 <0>         0.0471
     47 H25         0.6445   -3.6069   -8.9598 H         1 <0>         0.0951
     48 H26         1.2704   -5.0916   -8.2017 H         1 <0>         0.0983
     49 H27        -1.9414   -7.2214  -10.7627 H         1 <0>         0.0343
     50 H28        -0.2521   -7.6856  -11.0771 H         1 <0>         0.0783
     51 H29        -1.2345   -8.6261   -9.9288 H         1 <0>         0.0783
     52 H30         0.3120   -4.3224   -3.2487 H         1 <0>         0.3897
     53 H31         0.6835   -4.2464   -5.9464 H         1 <0>         0.4327
@<TRIPOS>BOND
     1    1    2 1
     2    1   23 1
     3    1   24 1
     4    1   25 1
     5    2    3 1
     6    2    4 1
     7    2   26 1
     8    3   27 1
     9    3   28 1
    10    3   29 1
    11    4    9 ar
    12    4    5 ar
    13    5    6 ar
    14    5   30 1
    15    6    7 ar
    16    6   31 1
    17    7    8 ar
    18    7   32 1
    19    8    9 ar
    20    8   33 1
    21    9   10 1
    22   10   11 1
    23   11   12 1
    24   11   34 1
    25   11   35 1
    26   12   13 1
    27   12   22 1
    28   12   36 1
    29   13   14 1
    30   13   37 1
    31   13   38 1
    32   14   15 1
    33   14   39 1
    34   14   53 1
    35   15   20 1
    36   15   16 1
    37   15   40 1
    38   16   17 1
    39   16   41 1
    40   16   42 1
    41   17   18 1
    42   17   43 1
    43   17   44 1
    44   18   19 1
    45   18   21 1
    46   19   20 1
    47   19   45 1
    48   19   46 1
    49   20   47 1
    50   20   48 1
    51   21   49 1
    52   21   50 1
    53   21   51 1
    54   22   52 1
@<TRIPOS>MOLECULE
CHEMBL1083670__2
   54    55     0     0     0
SMALL
USER_CHARGES

@<TRIPOS>ATOM
      1 C1         -0.0187    1.5258    0.0104 C.3       1 <0>        -0.1469
      2 C2          0.0021   -0.0041    0.0020 C.3       1 <0>        -0.0498
      3 C3          0.7421   -0.5109    1.2415 C.3       1 <0>        -0.1467
      4 C4         -1.4117   -0.5257    0.0127 C.ar      1 <0>        -0.0937
      5 C5         -2.2592   -0.2048    1.0557 C.ar      1 <0>        -0.0750
      6 C6         -3.5561   -0.6834    1.0663 C.ar      1 <0>        -0.1385
      7 C7         -4.0087   -1.4838    0.0335 C.ar      1 <0>        -0.0856
      8 C8         -3.1656   -1.8071   -1.0117 C.ar      1 <0>        -0.2060
      9 C9         -1.8651   -1.3237   -1.0273 C.ar      1 <0>         0.1122
     10 O1         -1.0353   -1.6358   -2.0574 O.3       1 <0>        -0.2986
     11 C10        -1.5698   -2.4619   -3.0937 C.3       1 <0>         0.0297
     12 C11        -0.4971   -2.7036   -4.1575 C.3       1 <0>         0.0863
     13 C12        -1.0275   -3.6875   -5.2023 C.3       1 <0>        -0.0479
     14 N1          0.0413   -4.0120   -6.1564 N.4       1 <0>        -0.5004
     15 C13        -0.4680   -4.9567   -7.1595 C.3       1 <0>         0.0143
     16 C14        -0.8115   -6.2867   -6.4825 C.3       1 <0>        -0.1737
     17 C15        -1.2657   -7.2908   -7.5441 C.3       1 <0>        -0.0026
     18 N2         -0.1877   -7.4999   -8.5180 N.4       1 <0>        -0.3901
     19 C16         0.0979   -6.2440   -9.2222 C.3       1 <0>        -0.0024
     20 C17         0.6046   -5.1997   -8.2252 C.3       1 <0>        -0.1715
     21 C18        -0.5992   -8.5218   -9.4898 C.3       1 <0>        -0.0509
     22 O2         -0.1684   -1.4662   -4.7922 O.3       1 <0>        -0.5401
     23 H1          1.0039    1.9031    0.0027 H         1 <0>         0.0620
     24 H2         -0.5459    1.8868   -0.8726 H         1 <0>         0.0542
     25 H3         -0.5289    1.8773    0.9072 H         1 <0>         0.0595
     26 H4          0.5123   -0.3556   -0.8948 H         1 <0>         0.0805
     27 H5          0.2319   -0.1594    2.1383 H         1 <0>         0.0599
     28 H6          0.7568   -1.6008    1.2356 H         1 <0>         0.0529
     29 H7          1.7647   -0.1336    1.2338 H         1 <0>         0.0620
     30 H8         -1.9081    0.4202    1.8635 H         1 <0>         0.1352
     31 H9         -4.2168   -0.4320    1.8828 H         1 <0>         0.1312
     32 H10        -5.0222   -1.8568    0.0443 H         1 <0>         0.1284
     33 H11        -3.5195   -2.4323   -1.8181 H         1 <0>         0.1203
     34 H12        -1.8844   -3.4163   -2.6715 H         1 <0>         0.0787
     35 H13        -2.4271   -1.9654   -3.5483 H         1 <0>         0.0763
     36 H14         0.3942   -3.1186   -3.6871 H         1 <0>         0.1361
     37 H15        -1.3611   -4.5991   -4.7065 H         1 <0>         0.1476
     38 H16        -1.8649   -3.2360   -5.7344 H         1 <0>         0.1461
     39 H17         0.3501   -3.1681   -6.6153 H         1 <0>         0.4439
     40 H18        -1.3610   -4.5438   -7.6287 H         1 <0>         0.1577
     41 H19         0.0697   -6.6725   -5.9700 H         1 <0>         0.1149
     42 H20        -1.6140   -6.1314   -5.7613 H         1 <0>         0.1358
     43 H21        -1.5113   -8.2388   -7.0654 H         1 <0>         0.1530
     44 H22        -2.1471   -6.9041   -8.0557 H         1 <0>         0.1424
     45 H23         0.8591   -6.4193   -9.9824 H         1 <0>         0.1536
     46 H24        -0.8125   -5.8797   -9.6981 H         1 <0>         0.1425
     47 H25         0.8144   -4.2674   -8.7496 H         1 <0>         0.1392
     48 H26         1.5152   -5.5629   -7.7488 H         1 <0>         0.1143
     49 H27        -1.4984   -8.1890  -10.0082 H         1 <0>         0.1283
     50 H28         0.2007   -8.6778  -10.2136 H         1 <0>         0.1331
     51 H29        -0.8052   -9.4567   -8.9687 H         1 <0>         0.1327
     52 H30        -0.9159   -1.0392   -5.2326 H         1 <0>         0.3926
     53 H31         0.6430   -7.8111   -8.0371 H         1 <0>         0.4296
     54 H32         0.8164   -4.4299   -5.6638 H         1 <0>         0.4334
@<TRIPOS>BOND
     1    1    2 1
     2    1   23 1
     3    1   24 1
     4    1   25 1
     5    2    3 1
     6    2    4 1
     7    2   26 1
     8    3   27 1
     9    3   28 1
    10    3   29 1
    11    4    9 ar
    12    4    5 ar
    13    5    6 ar
    14    5   30 1
    15    6    7 ar
    16    6   31 1
    17    7    8 ar
    18    7   32 1
    19    8    9 ar
    20    8   33 1
    21    9   10 1
    22   10   11 1
    23   11   12 1
    24   11   34 1
    25   11   35 1
    26   12   13 1
    27   12   22 1
    28   12   36 1
    29   13   14 1
    30   13   37 1
    31   13   38 1
    32   14   15 1
    33   14   39 1
    34   14   54 1
    35   15   20 1
    36   15   16 1
    37   15   40 1
    38   16   17 1
    39   16   41 1
    40   16   42 1
    41   17   18 1
    42   17   43 1
    43   17   44 1
    44   18   19 1
    45   18   21 1
    46   18   53 1
    47   19   20 1
    48   19   45 1
    49   19   46 1
    50   20   47 1
    51   20   48 1
    52   21   49 1
    53   21   50 1
    54   21   51 1
    55   22   52 1
@<TRIPOS>MOLECULE
CHEMBL1083670__3
   53    54     0     0     0
SMALL
USER_CHARGES

@<TRIPOS>ATOM
      1 C1         -0.0187    1.5258    0.0104 C.3       1 <0>        -0.1454
      2 C2          0.0021   -0.0041    0.0020 C.3       1 <0>        -0.0508
      3 C3          0.7421   -0.5109    1.2415 C.3       1 <0>        -0.1457
      4 C4         -1.4117   -0.5257    0.0127 C.ar      1 <0>        -0.0965
      5 C5         -2.2592   -0.2048    1.0557 C.ar      1 <0>        -0.0765
      6 C6         -3.5561   -0.6834    1.0663 C.ar      1 <0>        -0.1432
      7 C7         -4.0087   -1.4838    0.0335 C.ar      1 <0>        -0.0852
      8 C8         -3.1656   -1.8071   -1.0117 C.ar      1 <0>        -0.2060
      9 C9         -1.8651   -1.3237   -1.0273 C.ar      1 <0>         0.1173
     10 O1         -1.0353   -1.6358   -2.0574 O.3       1 <0>        -0.2989
     11 C10        -1.5698   -2.4619   -3.0937 C.3       1 <0>         0.0298
     12 C11        -0.4971   -2.7036   -4.1575 C.3       1 <0>         0.0874
     13 C12        -1.0275   -3.6875   -5.2023 C.3       1 <0>        -0.0449
     14 N1          0.0413   -4.0120   -6.1564 N.4       1 <0>        -0.5004
     15 C13        -0.4680   -4.9567   -7.1595 C.3       1 <0>         0.0236
     16 C14        -0.8132   -6.2857   -6.4819 C.3       1 <0>        -0.1387
     17 C15        -1.2854   -7.2849   -7.5406 C.3       1 <0>         0.0540
     18 N2         -0.2241   -7.4835   -8.5359 N.3       1 <0>        -0.5459
     19 C16         0.0914   -6.2301   -9.2330 C.3       1 <0>         0.0542
     20 C17         0.6047   -5.1994   -8.2248 C.3       1 <0>        -0.1381
     21 C18        -0.5882   -8.5393   -9.4901 C.3       1 <0>         0.0207
     22 O2         -0.1684   -1.4662   -4.7922 O.3       1 <0>        -0.5423
     23 H1          1.0039    1.9031    0.0027 H         1 <0>         0.0608
     24 H2         -0.5459    1.8868   -0.8726 H         1 <0>         0.0542
     25 H3         -0.5289    1.8773    0.9072 H         1 <0>         0.0578
     26 H4          0.5123   -0.3556   -0.8948 H         1 <0>         0.0824
     27 H5          0.2319   -0.1594    2.1383 H         1 <0>         0.0582
     28 H6          0.7568   -1.6008    1.2356 H         1 <0>         0.0537
     29 H7          1.7647   -0.1336    1.2338 H         1 <0>         0.0608
     30 H8         -1.9081    0.4202    1.8635 H         1 <0>         0.1329
     31 H9         -4.2168   -0.4320    1.8828 H         1 <0>         0.1288
     32 H10        -5.0222   -1.8568    0.0443 H         1 <0>         0.1273
     33 H11        -3.5195   -2.4323   -1.8181 H         1 <0>         0.1226
     34 H12        -1.8844   -3.4163   -2.6715 H         1 <0>         0.0801
     35 H13        -2.4271   -1.9654   -3.5483 H         1 <0>         0.0756
     36 H14         0.3942   -3.1186   -3.6871 H         1 <0>         0.1346
     37 H15        -1.3611   -4.5991   -4.7065 H         1 <0>         0.1464
     38 H16        -1.8649   -3.2360   -5.7344 H         1 <0>         0.1395
     39 H17         0.3501   -3.1681   -6.6153 H         1 <0>         0.4339
     40 H18        -1.3607   -4.5434   -7.6289 H         1 <0>         0.1372
     41 H19         0.0707   -6.6784   -5.9795 H         1 <0>         0.0984
     42 H20        -1.6069   -6.1267   -5.7520 H         1 <0>         0.0915
     43 H21        -1.5184   -8.2367   -7.0633 H         1 <0>         0.0981
     44 H22        -2.1774   -6.8978   -8.0331 H         1 <0>         0.0468
     45 H23         0.8584   -6.4158   -9.9849 H         1 <0>         0.0990
     46 H24        -0.8071   -5.8479   -9.7176 H         1 <0>         0.0470
     47 H25         0.8240   -4.2643   -8.7401 H         1 <0>         0.0951
     48 H26         1.5109   -5.5750   -7.7498 H         1 <0>         0.0982
     49 H27        -1.5056   -8.2601  -10.0084 H         1 <0>         0.0343
     50 H28         0.2151   -8.6658  -10.2160 H         1 <0>         0.0783
     51 H29        -0.7442   -9.4755   -8.9541 H         1 <0>         0.0783
     52 H30        -0.9159   -1.0392   -5.2326 H         1 <0>         0.3900
     53 H31         0.8164   -4.4299   -5.6638 H         1 <0>         0.4297
@<TRIPOS>BOND
     1    1    2 1
     2    1   23 1
     3    1   24 1
     4    1   25 1
     5    2    3 1
     6    2    4 1
     7    2   26 1
     8    3   27 1
     9    3   28 1
    10    3   29 1
    11    4    9 ar
    12    4    5 ar
    13    5    6 ar
    14    5   30 1
    15    6    7 ar
    16    6   31 1
    17    7    8 ar
    18    7   32 1
    19    8    9 ar
    20    8   33 1
    21    9   10 1
    22   10   11 1
    23   11   12 1
    24   11   34 1
    25   11   35 1
    26   12   13 1
    27   12   22 1
    28   12   36 1
    29   13   14 1
    30   13   37 1
    31   13   38 1
    32   14   15 1
    33   14   39 1
    34   14   53 1
    35   15   20 1
    36   15   16 1
    37   15   40 1
    38   16   17 1
    39   16   41 1
    40   16   42 1
    41   17   18 1
    42   17   43 1
    43   17   44 1
    44   18   19 1
    45   18   21 1
    46   19   20 1
    47   19   45 1
    48   19   46 1
    49   20   47 1
    50   20   48 1
    51   21   49 1
    52   21   50 1
    53   21   51 1
    54   22   52 1
@<TRIPOS>MOLECULE
CHEMBL39577
   73    76     0     0     0
SMALL
USER_CHARGES

@<TRIPOS>ATOM
      1 C1          2.0259  -24.8033   -0.4865 C.3       1 <0>        -0.1558
      2 C2          2.5632  -23.4854    0.0751 C.3       1 <0>        -0.1234
      3 C3          3.6841  -22.9657   -0.8272 C.3       1 <0>        -0.1212
      4 C4          4.2214  -21.6479   -0.2655 C.3       1 <0>        -0.1147
      5 C5          5.3424  -21.1282   -1.1678 C.3       1 <0>        -0.0295
      6 C6          5.8715  -19.8301   -0.6146 C.2       1 <0>         0.2172
      7 N1          6.8533  -19.7140    0.2352 N.2       1 <0>        -0.4781
      8 C7          7.0471  -18.4135    0.5003 C.2       1 <0>         0.0099
      9 C8          6.1395  -17.7092   -0.2234 C.2       1 <0>        -0.0390
     10 O1          5.4124  -18.6092   -0.9214 O.3       1 <0>        -0.1948
     11 C9          5.9807  -16.2397   -0.2473 C.ar      1 <0>         0.0575
     12 C10         4.9928  -15.6542   -1.0405 C.ar      1 <0>        -0.1276
     13 C11         4.8500  -14.2822   -1.0583 C.ar      1 <0>        -0.0114
     14 C12         5.6835  -13.4869   -0.2921 C.ar      1 <0>        -0.6762
     15 C13         6.6648  -14.0609    0.4964 C.ar      1 <0>        -0.0065
     16 C14         6.8144  -15.4320    0.5277 C.ar      1 <0>        -0.1198
     17 S1          5.4947  -11.7353   -0.3210 S.o2      1 <0>         2.6877
     18 O2          6.7792  -11.1841   -0.0648 O.2       1 <0>        -0.9398
     19 O3          4.7530  -11.4260   -1.4930 O.2       1 <0>        -0.9436
     20 N2          4.5380  -11.3245    0.9667 N.pl3     1 <0>        -1.0675
     21 C15         3.2233  -11.7911    1.0369 C.ar      1 <0>         0.1427
     22 C16         2.2417  -11.2304    0.2297 C.ar      1 <0>        -0.1002
     23 C17         0.9429  -11.6944    0.3012 C.ar      1 <0>        -0.0985
     24 C18         0.6190  -12.7157    1.1755 C.ar      1 <0>        -0.1009
     25 C19         1.5938  -13.2761    1.9805 C.ar      1 <0>        -0.1009
     26 C20         2.8957  -12.8208    1.9098 C.ar      1 <0>        -0.1068
     27 C21        -0.7995  -13.2188    1.2515 C.3       1 <0>        -0.1022
     28 C22        -0.9903  -14.3598    0.2503 C.3       1 <0>        -0.0088
     29 N3         -2.3730  -14.8502    0.3244 N.4       1 <0>        -0.5055
     30 C23        -2.5562  -15.9458   -0.6369 C.3       1 <0>        -0.0431
     31 C24        -3.9964  -16.4565   -0.5598 C.3       1 <0>         0.1416
     32 H1         -4.6832  -15.6446   -0.7990 H         1 <0>         0.1343
     33 C25        -4.1843  -17.5804   -1.5459 C.ar      1 <0>        -0.2007
     34 C26        -4.6896  -17.3264   -2.8121 C.ar      1 <0>        -0.0546
     35 C27        -4.8455  -18.3910   -3.6861 C.ar      1 <0>        -0.1638
     36 C28        -4.4947  -19.6615   -3.2694 C.ar      1 <0>         0.1228
     37 N4         -4.0176  -19.8660   -2.0574 N.ar      1 <0>        -0.4745
     38 C29        -3.8501  -18.8763   -1.2019 C.ar      1 <0>         0.1171
     39 O4         -4.2629  -16.9322    0.7611 O.3       1 <0>        -0.5458
     40 H2          1.6366  -24.6382   -1.4912 H         1 <0>         0.0542
     41 H3          2.8311  -25.5370   -0.5249 H         1 <0>         0.0567
     42 H4          1.2273  -25.1735    0.1563 H         1 <0>         0.0553
     43 H5          1.7580  -22.7517    0.1135 H         1 <0>         0.0581
     44 H6          2.9524  -23.6505    1.0798 H         1 <0>         0.0629
     45 H7          4.4893  -23.6994   -0.8655 H         1 <0>         0.0701
     46 H8          3.2948  -22.8007   -1.8318 H         1 <0>         0.0660
     47 H9          3.4162  -20.9142   -0.2271 H         1 <0>         0.0640
     48 H10         4.6107  -21.8129    0.7391 H         1 <0>         0.0737
     49 H11         6.1475  -21.8619   -1.2062 H         1 <0>         0.1134
     50 H12         4.9531  -20.9631   -2.1725 H         1 <0>         0.0969
     51 H13         7.7896  -18.0016    1.1677 H         1 <0>         0.1914
     52 H14         4.3418  -16.2739   -1.6394 H         1 <0>         0.1365
     53 H15         4.0862  -13.8278   -1.6720 H         1 <0>         0.1444
     54 H16         7.3124  -13.4345    1.0920 H         1 <0>         0.1500
     55 H17         7.5779  -15.8791    1.1471 H         1 <0>         0.1437
     56 H18         4.8905  -10.7600    1.6723 H         1 <0>         0.4317
     57 H19         2.4938  -10.4322   -0.4528 H         1 <0>         0.1435
     58 H20         0.1792  -11.2589   -0.3261 H         1 <0>         0.1334
     59 H21         1.3376  -14.0736    2.6622 H         1 <0>         0.1308
     60 H22         3.6575  -13.2619    2.5356 H         1 <0>         0.1358
     61 H23        -1.0028  -13.5816    2.2590 H         1 <0>         0.0989
     62 H24        -1.4862  -12.4068    1.0123 H         1 <0>         0.0997
     63 H25        -0.7870  -13.9970   -0.7573 H         1 <0>         0.1356
     64 H26        -0.3035  -15.1718    0.4895 H         1 <0>         0.1337
     65 H27        -2.5612  -15.1861    1.2570 H         1 <0>         0.4328
     66 H28        -2.3529  -15.5829   -1.6445 H         1 <0>         0.1453
     67 H29        -1.8695  -16.7577   -0.3977 H         1 <0>         0.1374
     68 H30        -4.9556  -16.3229   -3.1101 H         1 <0>         0.1412
     69 H31        -5.2365  -18.2300   -4.6799 H         1 <0>         0.1474
     70 H32        -4.6132  -20.4963   -3.9443 H         1 <0>         0.1672
     71 H33        -3.4514  -19.0818   -0.2194 H         1 <0>         0.1524
     72 H34        -3.6877  -17.6572    1.0416 H         1 <0>         0.3897
     73 H35        -3.0088  -14.0986    0.1029 H         1 <0>         0.4304
@<TRIPOS>BOND
     1    1    2 1
     2    1   40 1
     3    1   41 1
     4    1   42 1
     5    2    3 1
     6    2   43 1
     7    2   44 1
     8    3    4 1
     9    3   45 1
    10    3   46 1
    11    4    5 1
    12    4   47 1
    13    4   48 1
    14    5    6 1
    15    5   49 1
    16    5   50 1
    17    6   10 1
    18    6    7 2
    19    7    8 1
    20    8    9 2
    21    8   51 1
    22    9   10 1
    23    9   11 1
    24   11   16 ar
    25   11   12 ar
    26   12   13 ar
    27   12   52 1
    28   13   14 ar
    29   13   53 1
    30   14   15 ar
    31   14   17 1
    32   15   16 ar
    33   15   54 1
    34   16   55 1
    35   17   18 2
    36   17   19 2
    37   17   20 1
    38   20   21 1
    39   20   56 1
    40   21   26 ar
    41   21   22 ar
    42   22   23 ar
    43   22   57 1
    44   23   24 ar
    45   23   58 1
    46   24   25 ar
    47   24   27 1
    48   25   26 ar
    49   25   59 1
    50   26   60 1
    51   27   28 1
    52   27   61 1
    53   27   62 1
    54   28   29 1
    55   28   63 1
    56   28   64 1
    57   29   30 1
    58   29   65 1
    59   29   73 1
    60   30   31 1
    61   30   66 1
    62   30   67 1
    63   31   32 1
    64   31   33 1
    65   31   39 1
    66   33   38 ar
    67   33   34 ar
    68   34   35 ar
    69   34   68 1
    70   35   36 ar
    71   35   69 1
    72   36   37 ar
    73   36   70 1
    74   37   38 ar
    75   38   71 1
    76   39   72 1
@<TRIPOS>MOLECULE
CHEMBL39577__1
   72    75     0     0     0
SMALL
USER_CHARGES

@<TRIPOS>ATOM
      1 C1         -0.0187    1.5258    0.0104 C.3       1 <0>        -0.1538
      2 C2          0.0021   -0.0041    0.0020 C.3       1 <0>        -0.1260
      3 C3         -1.4333   -0.5336    0.0129 C.3       1 <0>        -0.1188
      4 C4         -1.4126   -2.0635    0.0045 C.3       1 <0>        -0.1182
      5 C5         -2.8479   -2.5931    0.0153 C.3       1 <0>        -0.0237
      6 C6         -2.8275   -4.0999    0.0070 C.2       1 <0>         0.1982
      7 N1         -2.8128   -4.8623    1.0644 N.2       1 <0>        -0.4788
      8 C7         -2.7978   -6.1457    0.6746 C.2       1 <0>        -0.0129
      9 C8         -2.8037   -6.1605   -0.6830 C.2       1 <0>        -0.0091
     10 O1         -2.8274   -4.8717   -1.0883 O.3       1 <0>        -0.1930
     11 C9         -2.7919   -7.3570   -1.5511 C.ar      1 <0>         0.0230
     12 C10        -2.7937   -7.2155   -2.9397 C.ar      1 <0>        -0.1247
     13 C11        -2.7828   -8.3363   -3.7441 C.ar      1 <0>        -0.0195
     14 C12        -2.7700   -9.5983   -3.1773 C.ar      1 <0>        -0.6116
     15 C13        -2.7682   -9.7455   -1.8016 C.ar      1 <0>        -0.0178
     16 C14        -2.7732   -8.6330   -0.9858 C.ar      1 <0>        -0.1197
     17 S1         -2.7566  -11.0245   -4.2120 S.o2      1 <0>         2.6078
     18 O2         -3.2966  -12.0899   -3.4421 O.2       1 <0>        -1.0227
     19 O3         -3.3122  -10.6273   -5.4581 O.2       1 <0>        -1.0253
     20 N2         -1.1710  -11.4052   -4.5005 N.2       1 <0>        -1.0815
     21 C15        -0.8512  -12.5046   -5.3005 C.ar      1 <0>         0.2962
     22 C16        -1.8620  -13.2762   -5.8596 C.ar      1 <0>        -0.2648
     23 C17        -1.5423  -14.3622   -6.6506 C.ar      1 <0>        -0.0476
     24 C18        -0.2177  -14.6822   -6.8858 C.ar      1 <0>        -0.2354
     25 C19         0.7910  -13.9162   -6.3308 C.ar      1 <0>        -0.0636
     26 C20         0.4783  -12.8254   -5.5435 C.ar      1 <0>        -0.1805
     27 C21         0.1274  -15.8686   -7.7486 C.3       1 <0>        -0.0713
     28 C22         0.2417  -15.4222   -9.2075 C.3       1 <0>        -0.0111
     29 N3          0.5781  -16.5787  -10.0486 N.4       1 <0>        -0.5054
     30 C23         0.6879  -16.1500  -11.4493 C.3       1 <0>        -0.0426
     31 C24         1.0382  -17.3546  -12.3253 C.3       1 <0>         0.1404
     32 H1          0.2559  -18.1084  -12.2362 H         1 <0>         0.1328
     33 C25         1.1508  -16.9149  -13.7623 C.ar      1 <0>        -0.1952
     34 C26         0.0645  -17.0243  -14.6172 C.ar      1 <0>        -0.0553
     35 C27         0.2140  -16.6074  -15.9309 C.ar      1 <0>        -0.1653
     36 C28         1.4323  -16.1001  -16.3419 C.ar      1 <0>         0.1186
     37 N4          2.4441  -16.0111  -15.5012 N.ar      1 <0>        -0.4762
     38 C29         2.3361  -16.3922  -14.2432 C.ar      1 <0>         0.1169
     39 O4          2.2842  -17.9083  -11.8976 O.3       1 <0>        -0.5469
     40 H2          1.0039    1.9031    0.0027 H         1 <0>         0.0538
     41 H3         -0.5459    1.8868   -0.8726 H         1 <0>         0.0539
     42 H4         -0.5289    1.8773    0.9072 H         1 <0>         0.0542
     43 H5          0.5123   -0.3556   -0.8948 H         1 <0>         0.0617
     44 H6          0.5293   -0.3651    0.8851 H         1 <0>         0.0624
     45 H7         -1.9435   -0.1821    0.9097 H         1 <0>         0.0668
     46 H8         -1.9605   -0.1726   -0.8702 H         1 <0>         0.0656
     47 H9         -0.9024   -2.4150   -0.8923 H         1 <0>         0.0680
     48 H10        -0.8854   -2.4246    0.8875 H         1 <0>         0.0725
     49 H11        -3.3581   -2.2415    0.9121 H         1 <0>         0.1081
     50 H12        -3.3751   -2.2320   -0.8677 H         1 <0>         0.0943
     51 H13        -2.7836   -7.0096    1.3225 H         1 <0>         0.1891
     52 H14        -2.8040   -6.2310   -3.3834 H         1 <0>         0.1331
     53 H15        -2.7845   -8.2282   -4.8187 H         1 <0>         0.1424
     54 H16        -2.7585  -10.7335   -1.3654 H         1 <0>         0.1457
     55 H17        -2.7672   -8.7491    0.0879 H         1 <0>         0.1360
     56 H18        -2.8967  -13.0273   -5.6757 H         1 <0>         0.1015
     57 H19        -2.3276  -14.9625   -7.0855 H         1 <0>         0.1018
     58 H20         1.8245  -14.1688   -6.5165 H         1 <0>         0.1048
     59 H21         1.2665  -12.2249   -5.1140 H         1 <0>         0.1170
     60 H22         1.0778  -16.2909   -7.4223 H         1 <0>         0.0809
     61 H23        -0.6549  -16.6224   -7.6595 H         1 <0>         0.0797
     62 H24        -0.7087  -14.9998   -9.5338 H         1 <0>         0.1304
     63 H25         1.0240  -14.6684   -9.2966 H         1 <0>         0.1307
     64 H26         1.4579  -16.9696   -9.7465 H         1 <0>         0.4293
     65 H27        -0.2625  -15.7277  -11.7756 H         1 <0>         0.1429
     66 H28         1.4701  -15.3962  -11.5384 H         1 <0>         0.1361
     67 H29        -0.8756  -17.4252  -14.2681 H         1 <0>         0.1412
     68 H30        -0.6108  -16.6785  -16.6244 H         1 <0>         0.1455
     69 H31         1.5570  -15.7731  -17.3637 H         1 <0>         0.1651
     70 H32         3.1854  -16.2992  -13.5825 H         1 <0>         0.1538
     71 H33         3.0272  -17.2917  -11.9499 H         1 <0>         0.3893
     72 H34        -0.1461  -17.2764   -9.9661 H         1 <0>         0.4264
@<TRIPOS>BOND
     1    1    2 1
     2    1   40 1
     3    1   41 1
     4    1   42 1
     5    2    3 1
     6    2   43 1
     7    2   44 1
     8    3    4 1
     9    3   45 1
    10    3   46 1
    11    4    5 1
    12    4   47 1
    13    4   48 1
    14    5    6 1
    15    5   49 1
    16    5   50 1
    17    6   10 1
    18    6    7 2
    19    7    8 1
    20    8    9 2
    21    8   51 1
    22    9   10 1
    23    9   11 1
    24   11   16 ar
    25   11   12 ar
    26   12   13 ar
    27   12   52 1
    28   13   14 ar
    29   13   53 1
    30   14   15 ar
    31   14   17 1
    32   15   16 ar
    33   15   54 1
    34   16   55 1
    35   17   18 2
    36   17   19 2
    37   17   20 1
    38   20   21 1
    39   21   26 ar
    40   21   22 ar
    41   22   23 ar
    42   22   56 1
    43   23   24 ar
    44   23   57 1
    45   24   25 ar
    46   24   27 1
    47   25   26 ar
    48   25   58 1
    49   26   59 1
    50   27   28 1
    51   27   60 1
    52   27   61 1
    53   28   29 1
    54   28   62 1
    55   28   63 1
    56   29   30 1
    57   29   64 1
    58   29   72 1
    59   30   31 1
    60   30   65 1
    61   30   66 1
    62   31   32 1
    63   31   33 1
    64   31   39 1
    65   33   38 ar
    66   33   34 ar
    67   34   35 ar
    68   34   67 1
    69   35   36 ar
    70   35   68 1
    71   36   37 ar
    72   36   69 1
    73   37   38 ar
    74   38   70 1
    75   39   71 1
@<TRIPOS>MOLECULE
CHEMBL39915
   50    52     0     0     0
SMALL
USER_CHARGES

@<TRIPOS>ATOM
      1 C1         -0.0187    1.5258    0.0104 C.3       1 <0>        -0.1797
      2 C2          0.0021   -0.0041    0.0020 C.3       1 <0>         0.0603
      3 C3          0.7421   -0.5109    1.2415 C.3       1 <0>        -0.1816
      4 C4         -1.4333   -0.5336    0.0129 C.3       1 <0>        -0.0912
      5 C5         -2.1387   -0.0476    1.2528 C.ar      1 <0>        -0.0963
      6 C6         -2.0930   -0.7979    2.4129 C.ar      1 <0>        -0.1102
      7 C7         -2.7400   -0.3521    3.5502 C.ar      1 <0>        -0.1152
      8 C8         -3.4324    0.8442    3.5275 C.ar      1 <0>        -0.1079
      9 C9         -3.4773    1.5948    2.3676 C.ar      1 <0>        -0.1156
     10 C10        -2.8267    1.1511    1.2315 C.ar      1 <0>        -0.1105
     11 N1          0.6897   -0.4778   -1.2066 N.4       1 <0>        -0.5006
     12 C11         2.0678    0.0307   -1.2170 C.3       1 <0>        -0.0543
     13 C12         2.7840   -0.4628   -2.4758 C.3       1 <0>         0.1632
     14 C13         4.2310   -0.0447   -2.4270 C.ar      1 <0>        -0.2609
     15 C14         4.6317    1.1084   -3.0401 C.ar      1 <0>        -0.0413
     16 C15         5.9612    1.5044   -3.0025 C.ar      1 <0>        -0.2642
     17 C16         6.9056    0.7393   -2.3437 C.ar      1 <0>         0.2694
     18 C17         6.5172   -0.4424   -1.7108 C.ar      1 <0>         0.0645
     19 C18         5.1667   -0.8337   -1.7487 C.ar      1 <0>        -0.0674
     20 C19         4.7678   -2.0721   -1.0771 C.2       1 <0>        -0.0483
     21 C20         5.7176   -2.7965   -0.4357 C.2       1 <0>        -0.2055
     22 C21         7.0587   -2.3567   -0.4219 C.2       1 <0>         0.5122
     23 N2          7.4368   -1.2271   -1.0459 N.am      1 <0>        -0.5934
     24 O1          7.8966   -3.0227    0.1613 O.2       1 <0>        -0.5716
     25 O2          8.2058    1.1357   -2.3130 O.3       1 <0>        -0.6870
     26 O3          2.1628    0.1050   -3.6307 O.3       1 <0>        -0.5566
     27 H1          1.0039    1.9031    0.0027 H         1 <0>         0.0850
     28 H2         -0.5459    1.8868   -0.8726 H         1 <0>         0.0807
     29 H3         -0.5289    1.8773    0.9072 H         1 <0>         0.1054
     30 H4          0.2319   -0.1594    2.1383 H         1 <0>         0.1057
     31 H5          0.7568   -1.6008    1.2356 H         1 <0>         0.0814
     32 H6          1.7647   -0.1336    1.2338 H         1 <0>         0.0860
     33 H7         -1.9605   -0.1726   -0.8702 H         1 <0>         0.0951
     34 H8         -1.4185   -1.6235    0.0069 H         1 <0>         0.0951
     35 H9         -1.5520   -1.7325    2.4307 H         1 <0>         0.1248
     36 H10        -2.7048   -0.9386    4.4564 H         1 <0>         0.1276
     37 H11        -3.9385    1.1921    4.4159 H         1 <0>         0.1270
     38 H12        -4.0185    2.5293    2.3498 H         1 <0>         0.1274
     39 H13        -2.8587    1.7394    0.3264 H         1 <0>         0.1244
     40 H14         0.7033   -1.4867   -1.2121 H         1 <0>         0.4231
     41 H15         2.0530    1.1205   -1.2110 H         1 <0>         0.1370
     42 H16         2.5950   -0.3304   -0.3340 H         1 <0>         0.1423
     43 H17         2.7213   -1.5498   -2.5270 H         1 <0>         0.1133
     44 H18         3.9068    1.7177   -3.5595 H         1 <0>         0.0997
     45 H19         6.2610    2.4188   -3.4928 H         1 <0>         0.1111
     46 H20         3.7392   -2.4011   -1.0919 H         1 <0>         0.1223
     47 H21         5.4469   -3.7134    0.0667 H         1 <0>         0.1440
     48 H22         2.1814    1.0716   -3.6522 H         1 <0>         0.3836
     49 H23         8.3670   -0.9536   -1.0174 H         1 <0>         0.4201
     50 H24         0.2017   -0.1436   -2.0240 H         1 <0>         0.4273
@<TRIPOS>BOND
     1    1    2 1
     2    1   27 1
     3    1   28 1
     4    1   29 1
     5    2    3 1
     6    2    4 1
     7    2   11 1
     8    3   30 1
     9    3   31 1
    10    3   32 1
    11    4    5 1
    12    4   33 1
    13    4   34 1
    14    5   10 ar
    15    5    6 ar
    16    6    7 ar
    17    6   35 1
    18    7    8 ar
    19    7   36 1
    20    8    9 ar
    21    8   37 1
    22    9   10 ar
    23    9   38 1
    24   10   39 1
    25   11   12 1
    26   11   40 1
    27   11   50 1
    28   12   13 1
    29   12   41 1
    30   12   42 1
    31   13   14 1
    32   13   26 1
    33   13   43 1
    34   14   19 ar
    35   14   15 ar
    36   15   16 ar
    37   15   44 1
    38   16   17 ar
    39   16   45 1
    40   17   18 ar
    41   17   25 1
    42   18   23 1
    43   18   19 ar
    44   19   20 1
    45   20   21 2
    46   20   46 1
    47   21   22 1
    48   21   47 1
    49   22   23 am
    50   22   24 2
    51   23   49 1
    52   26   48 1
@<TRIPOS>MOLECULE
CHEMBL39915__1
   50    52     0     0     0
SMALL
USER_CHARGES

@<TRIPOS>ATOM
      1 C1         -0.0187    1.5258    0.0104 C.3       1 <0>        -0.1814
      2 C2          0.0021   -0.0041    0.0020 C.3       1 <0>         0.0603
      3 C3          0.7421   -0.5109    1.2415 C.3       1 <0>        -0.1801
      4 C4         -1.4333   -0.5336    0.0129 C.3       1 <0>        -0.0911
      5 C5         -2.1387   -0.0476    1.2528 C.ar      1 <0>        -0.0963
      6 C6         -2.0930   -0.7979    2.4129 C.ar      1 <0>        -0.1105
      7 C7         -2.7400   -0.3521    3.5502 C.ar      1 <0>        -0.1155
      8 C8         -3.4324    0.8442    3.5275 C.ar      1 <0>        -0.1079
      9 C9         -3.4773    1.5948    2.3676 C.ar      1 <0>        -0.1152
     10 C10        -2.8267    1.1511    1.2315 C.ar      1 <0>        -0.1102
     11 N1          0.6897   -0.4778   -1.2066 N.4       1 <0>        -0.5000
     12 C11         2.0678    0.0307   -1.2170 C.3       1 <0>        -0.0543
     13 C12         2.7840   -0.4628   -2.4758 C.3       1 <0>         0.1630
     14 C13         4.1978    0.0589   -2.4865 C.ar      1 <0>        -0.2611
     15 C14         5.2165   -0.7140   -2.0060 C.ar      1 <0>        -0.0415
     16 C15         6.5227   -0.2452   -2.0102 C.ar      1 <0>        -0.2643
     17 C16         6.8177    1.0130   -2.5010 C.ar      1 <0>         0.2694
     18 C17         5.7917    1.8188   -2.9966 C.ar      1 <0>         0.0642
     19 C18         4.4713    1.3339   -2.9940 C.ar      1 <0>        -0.0669
     20 C19         3.4022    2.1843   -3.5212 C.2       1 <0>        -0.0482
     21 C20         3.7262    3.4108   -3.9997 C.2       1 <0>        -0.2056
     22 C21         5.0681    3.8480   -3.9855 C.2       1 <0>         0.5123
     23 N2          6.0550    3.0791   -3.4925 N.am      1 <0>        -0.5936
     24 O1          5.3376    4.9540   -4.4213 O.2       1 <0>        -0.5716
     25 O2          8.1007    1.4633   -2.5004 O.3       1 <0>        -0.6871
     26 O3          2.8033   -1.8916   -2.4837 O.3       1 <0>        -0.5571
     27 H1          1.0039    1.9031    0.0027 H         1 <0>         0.0858
     28 H2         -0.5459    1.8868   -0.8726 H         1 <0>         0.0813
     29 H3         -0.5289    1.8773    0.9072 H         1 <0>         0.1057
     30 H4          0.2319   -0.1594    2.1383 H         1 <0>         0.1054
     31 H5          0.7568   -1.6008    1.2356 H         1 <0>         0.0807
     32 H6          1.7647   -0.1336    1.2338 H         1 <0>         0.0853
     33 H7         -1.9605   -0.1726   -0.8702 H         1 <0>         0.0951
     34 H8         -1.4185   -1.6235    0.0069 H         1 <0>         0.0951
     35 H9         -1.5520   -1.7325    2.4307 H         1 <0>         0.1244
     36 H10        -2.7048   -0.9386    4.4564 H         1 <0>         0.1274
     37 H11        -3.9385    1.1921    4.4159 H         1 <0>         0.1270
     38 H12        -4.0185    2.5293    2.3498 H         1 <0>         0.1276
     39 H13        -2.8587    1.7394    0.3264 H         1 <0>         0.1247
     40 H14         0.7033   -1.4867   -1.2121 H         1 <0>         0.4271
     41 H15         2.0530    1.1205   -1.2110 H         1 <0>         0.1417
     42 H16         2.5950   -0.3304   -0.3340 H         1 <0>         0.1375
     43 H17         2.2568   -0.1017   -3.3589 H         1 <0>         0.1141
     44 H18         5.0033   -1.6993   -1.6186 H         1 <0>         0.0997
     45 H19         7.3161   -0.8692   -1.6262 H         1 <0>         0.1111
     46 H20         2.3780    1.8418   -3.5291 H         1 <0>         0.1231
     47 H21         2.9545    4.0556   -4.3936 H         1 <0>         0.1440
     48 H22         3.2576   -2.2830   -1.7250 H         1 <0>         0.3833
     49 H23         6.9668    3.4102   -3.4972 H         1 <0>         0.4200
     50 H24         0.2017   -0.1436   -2.0240 H         1 <0>         0.4232
@<TRIPOS>BOND
     1    1    2 1
     2    1   27 1
     3    1   28 1
     4    1   29 1
     5    2    3 1
     6    2    4 1
     7    2   11 1
     8    3   30 1
     9    3   31 1
    10    3   32 1
    11    4    5 1
    12    4   33 1
    13    4   34 1
    14    5   10 ar
    15    5    6 ar
    16    6    7 ar
    17    6   35 1
    18    7    8 ar
    19    7   36 1
    20    8    9 ar
    21    8   37 1
    22    9   10 ar
    23    9   38 1
    24   10   39 1
    25   11   12 1
    26   11   40 1
    27   11   50 1
    28   12   13 1
    29   12   41 1
    30   12   42 1
    31   13   14 1
    32   13   26 1
    33   13   43 1
    34   14   19 ar
    35   14   15 ar
    36   15   16 ar
    37   15   44 1
    38   16   17 ar
    39   16   45 1
    40   17   18 ar
    41   17   25 1
    42   18   23 1
    43   18   19 ar
    44   19   20 1
    45   20   21 2
    46   20   46 1
    47   21   22 1
    48   21   47 1
    49   22   23 am
    50   22   24 2
    51   23   49 1
    52   26   48 1
@<TRIPOS>MOLECULE
CHEMBL98975
   50    52     0     0     0
SMALL
USER_CHARGES

@<TRIPOS>ATOM
      1 C1         -0.0167    1.3784    0.0096 C.ar      1 <0>        -0.1471
      2 C2          1.1698    2.0883    0.0021 C.ar      1 <0>        -0.0763
      3 C3          2.3773    1.4175   -0.0134 C.ar      1 <0>        -0.1444
      4 C4          2.3989    0.0304   -0.0210 C.ar      1 <0>         0.1162
      5 C5          1.2070   -0.6796   -0.0130 C.ar      1 <0>        -0.2095
      6 C6          0.0021   -0.0041    0.0020 C.ar      1 <0>        -0.0801
      7 O1          3.5855   -0.6319   -0.0368 O.3       1 <0>        -0.3027
      8 C7          3.5315   -2.0598   -0.0438 C.3       1 <0>         0.0300
      9 C8          4.9536   -2.6239   -0.0615 C.3       1 <0>         0.0855
     10 C9          4.8964   -4.1471   -0.1947 C.3       1 <0>        -0.0425
     11 N1          6.2619   -4.6887   -0.2117 N.4       1 <0>        -0.5047
     12 C10         6.2070   -6.1510   -0.3396 C.3       1 <0>         0.0009
     13 C11         7.6291   -6.7151   -0.3573 C.3       1 <0>         0.0229
     14 O2          8.2548   -6.4692    0.9037 O.3       1 <0>        -0.3260
     15 C12         9.5317   -6.9103    1.0556 C.ar      1 <0>         0.1044
     16 C13        10.1696   -7.5611    0.0095 C.ar      1 <0>        -0.1720
     17 C14        11.4665   -8.0093    0.1634 C.ar      1 <0>        -0.0950
     18 C15        12.1322   -7.8083    1.3648 C.ar      1 <0>         0.1227
     19 C16        11.4937   -7.1568    2.4110 C.ar      1 <0>        -0.0929
     20 C17        10.1985   -6.7046    2.2547 C.ar      1 <0>        -0.1098
     21 N2         13.4504   -8.2642    1.5218 N.pl3     1 <0>        -0.4175
     22 C18        14.2262   -8.1426    2.6452 C.2       1 <0>        -0.0569
     23 C19        15.4131   -8.7131    2.3633 C.2       1 <0>        -0.0123
     24 N3         15.3684   -9.1720    1.1039 N.2       1 <0>        -0.4774
     25 C20        14.1959   -8.9143    0.5913 C.2       1 <0>         0.1885
     26 O3          5.6188   -2.2768    1.1546 O.3       1 <0>        -0.5426
     27 H1         -0.9596    1.9047    0.0260 H         1 <0>         0.1298
     28 H2          1.1525    3.1682    0.0080 H         1 <0>         0.1354
     29 H3          3.3038    1.9724   -0.0200 H         1 <0>         0.1332
     30 H4          1.2211   -1.7595   -0.0193 H         1 <0>         0.1233
     31 H5         -0.9260   -0.5563    0.0082 H         1 <0>         0.1286
     32 H6          3.0134   -2.4083    0.8497 H         1 <0>         0.0766
     33 H7          2.9951   -2.3988   -0.9302 H         1 <0>         0.0814
     34 H8          5.4999   -2.2055   -0.9067 H         1 <0>         0.1358
     35 H9          4.3501   -4.5655    0.6505 H         1 <0>         0.1414
     36 H10         4.3890   -4.4118   -1.1224 H         1 <0>         0.1485
     37 H11         6.7676   -4.3013   -0.9941 H         1 <0>         0.4308
     38 H12         5.6606   -6.5695    0.5056 H         1 <0>         0.1450
     39 H13         5.6996   -6.4158   -1.2672 H         1 <0>         0.1542
     40 H14         7.5918   -7.7889   -0.5411 H         1 <0>         0.1135
     41 H15         8.2023   -6.2309   -1.1479 H         1 <0>         0.0901
     42 H16         9.6516   -7.7174   -0.9251 H         1 <0>         0.1389
     43 H17        11.9628   -8.5165   -0.6507 H         1 <0>         0.1415
     44 H18        12.0112   -7.0005    3.3460 H         1 <0>         0.1452
     45 H19         9.7031   -6.1940    3.0673 H         1 <0>         0.1448
     46 H20        13.9407   -7.6778    3.5774 H         1 <0>         0.1809
     47 H21        16.2555   -8.7877    3.0351 H         1 <0>         0.1794
     48 H22        13.8736   -9.1725   -0.4067 H         1 <0>         0.2096
     49 H23         5.1868   -2.6168    1.9502 H         1 <0>         0.3906
     50 H24         6.7316   -4.4435    0.6470 H         1 <0>         0.4403
@<TRIPOS>BOND
     1    1    6 ar
     2    1    2 ar
     3    1   27 1
     4    2    3 ar
     5    2   28 1
     6    3    4 ar
     7    3   29 1
     8    4    5 ar
     9    4    7 1
    10    5    6 ar
    11    5   30 1
    12    6   31 1
    13    7    8 1
    14    8    9 1
    15    8   32 1
    16    8   33 1
    17    9   10 1
    18    9   26 1
    19    9   34 1
    20   10   11 1
    21   10   35 1
    22   10   36 1
    23   11   12 1
    24   11   37 1
    25   11   50 1
    26   12   13 1
    27   12   38 1
    28   12   39 1
    29   13   14 1
    30   13   40 1
    31   13   41 1
    32   14   15 1
    33   15   20 ar
    34   15   16 ar
    35   16   17 ar
    36   16   42 1
    37   17   18 ar
    38   17   43 1
    39   18   19 ar
    40   18   21 1
    41   19   20 ar
    42   19   44 1
    43   20   45 1
    44   21   25 1
    45   21   22 1
    46   22   23 2
    47   22   46 1
    48   23   24 1
    49   23   47 1
    50   24   25 2
    51   25   48 1
    52   26   49 1
@<TRIPOS>MOLECULE
CHEMBL98975__1
   49    51     0     0     0
SMALL
USER_CHARGES

@<TRIPOS>ATOM
      1 C1         -0.0167    1.3784    0.0096 C.ar      1 <0>        -0.1585
      2 C2          1.1698    2.0883    0.0021 C.ar      1 <0>        -0.0795
      3 C3          2.3773    1.4175   -0.0134 C.ar      1 <0>        -0.1513
      4 C4          2.3989    0.0304   -0.0210 C.ar      1 <0>         0.1274
      5 C5          1.2070   -0.6796   -0.0130 C.ar      1 <0>        -0.2118
      6 C6          0.0021   -0.0041    0.0020 C.ar      1 <0>        -0.0806
      7 O1          3.5855   -0.6319   -0.0368 O.3       1 <0>        -0.3032
      8 C7          3.5315   -2.0598   -0.0438 C.3       1 <0>         0.0278
      9 C8          4.9536   -2.6239   -0.0615 C.3       1 <0>         0.1146
     10 C9          4.8964   -4.1471   -0.1947 C.3       1 <0>         0.0299
     11 N1          6.2619   -4.6887   -0.2117 N.3       1 <0>        -0.6721
     12 C10         6.2462   -6.1521   -0.3388 C.3       1 <0>         0.0592
     13 C11         7.6828   -6.6782   -0.3529 C.3       1 <0>         0.0604
     14 O2          8.2988   -6.4150    0.9094 O.3       1 <0>        -0.2922
     15 C12         9.5866   -6.8219    1.0645 C.ar      1 <0>         0.1310
     16 C13        10.2441   -7.4561    0.0203 C.ar      1 <0>        -0.1854
     17 C14        11.5521   -7.8696    0.1774 C.ar      1 <0>        -0.0900
     18 C15        12.2094   -7.6504    1.3802 C.ar      1 <0>         0.0907
     19 C16        11.5514   -7.0154    2.4246 C.ar      1 <0>        -0.0891
     20 C17        10.2449   -6.5979    2.2650 C.ar      1 <0>        -0.1230
     21 N2         13.5389   -8.0710    1.5405 N.pl3     1 <0>        -0.4063
     22 C18        14.3086   -7.9281    2.6656 C.2       1 <0>        -0.0553
     23 C19        15.5108   -8.4671    2.3868 C.2       1 <0>        -0.0222
     24 N3         15.4813   -8.9276    1.1276 N.2       1 <0>        -0.4853
     25 C20        14.3035   -8.7015    0.6121 C.2       1 <0>         0.1844
     26 O3          5.6188   -2.2768    1.1546 O.3       1 <0>        -0.5358
     27 H1         -0.9596    1.9047    0.0260 H         1 <0>         0.1246
     28 H2          1.1525    3.1682    0.0080 H         1 <0>         0.1304
     29 H3          3.3038    1.9724   -0.0200 H         1 <0>         0.1314
     30 H4          1.2211   -1.7595   -0.0193 H         1 <0>         0.1252
     31 H5         -0.9260   -0.5563    0.0082 H         1 <0>         0.1248
     32 H6          3.0134   -2.4083    0.8497 H         1 <0>         0.0673
     33 H7          2.9951   -2.3988   -0.9302 H         1 <0>         0.0701
     34 H8          5.4999   -2.2055   -0.9067 H         1 <0>         0.1072
     35 H9          4.3501   -4.5655    0.6505 H         1 <0>         0.0814
     36 H10         4.3890   -4.4118   -1.1224 H         1 <0>         0.0433
     37 H11         6.8088   -4.2676   -0.9476 H         1 <0>         0.3448
     38 H12         5.7092   -6.5844    0.5054 H         1 <0>         0.0871
     39 H13         5.7481   -6.4308   -1.2675 H         1 <0>         0.0548
     40 H14         7.6745   -7.7526   -0.5361 H         1 <0>         0.0709
     41 H15         8.2448   -6.1793   -1.1425 H         1 <0>         0.0647
     42 H16         9.7326   -7.6267   -0.9155 H         1 <0>         0.1374
     43 H17        12.0635   -8.3639   -0.6353 H         1 <0>         0.1345
     44 H18        12.0624   -6.8449    3.3606 H         1 <0>         0.1383
     45 H19         9.7343   -6.1002    3.0761 H         1 <0>         0.1432
     46 H20        14.0086   -7.4706    3.5968 H         1 <0>         0.1780
     47 H21        16.3533   -8.5189    3.0605 H         1 <0>         0.1751
     48 H22        13.9905   -8.9687   -0.3864 H         1 <0>         0.2071
     49 H23         5.1868   -2.6168    1.9502 H         1 <0>         0.3745
@<TRIPOS>BOND
     1    1    6 ar
     2    1    2 ar
     3    1   27 1
     4    2    3 ar
     5    2   28 1
     6    3    4 ar
     7    3   29 1
     8    4    5 ar
     9    4    7 1
    10    5    6 ar
    11    5   30 1
    12    6   31 1
    13    7    8 1
    14    8    9 1
    15    8   32 1
    16    8   33 1
    17    9   10 1
    18    9   26 1
    19    9   34 1
    20   10   11 1
    21   10   35 1
    22   10   36 1
    23   11   12 1
    24   11   37 1
    25   12   13 1
    26   12   38 1
    27   12   39 1
    28   13   14 1
    29   13   40 1
    30   13   41 1
    31   14   15 1
    32   15   20 ar
    33   15   16 ar
    34   16   17 ar
    35   16   42 1
    36   17   18 ar
    37   17   43 1
    38   18   19 ar
    39   18   21 1
    40   19   20 ar
    41   19   44 1
    42   20   45 1
    43   21   25 1
    44   21   22 1
    45   22   23 2
    46   22   46 1
    47   23   24 1
    48   23   47 1
    49   24   25 2
    50   25   48 1
    51   26   49 1
@<TRIPOS>MOLECULE
CHEMBL98975__2
   50    52     0     0     0
SMALL
USER_CHARGES

@<TRIPOS>ATOM
      1 C1         -0.0167    1.3784    0.0096 C.ar      1 <0>        -0.1471
      2 C2          1.1698    2.0883    0.0021 C.ar      1 <0>        -0.0763
      3 C3          2.3773    1.4175   -0.0134 C.ar      1 <0>        -0.1444
      4 C4          2.3989    0.0304   -0.0210 C.ar      1 <0>         0.1161
      5 C5          1.2070   -0.6796   -0.0130 C.ar      1 <0>        -0.2095
      6 C6          0.0021   -0.0041    0.0020 C.ar      1 <0>        -0.0800
      7 O1          3.5855   -0.6319   -0.0368 O.3       1 <0>        -0.3028
      8 C7          3.5315   -2.0598   -0.0438 C.3       1 <0>         0.0301
      9 C8          4.9536   -2.6239   -0.0615 C.3       1 <0>         0.0855
     10 C9          4.8990   -4.1484    0.0567 C.3       1 <0>        -0.0420
     11 N1          6.2643   -4.6807    0.1602 N.4       1 <0>        -0.5051
     12 C10         6.2119   -6.1443    0.2737 C.3       1 <0>         0.0009
     13 C11         7.6339   -6.6987    0.3815 C.3       1 <0>         0.0231
     14 O2          8.2305   -6.2463    1.5986 O.3       1 <0>        -0.3265
     15 C12         9.5034   -6.6520    1.8501 C.ar      1 <0>         0.1042
     16 C13        10.1650   -7.4639    0.9402 C.ar      1 <0>        -0.1716
     17 C14        11.4579   -7.8761    1.1953 C.ar      1 <0>        -0.0949
     18 C15        12.0959   -7.4778    2.3619 C.ar      1 <0>         0.1228
     19 C16        11.4337   -6.6650    3.2718 C.ar      1 <0>        -0.0930
     20 C17        10.1426   -6.2492    3.0137 C.ar      1 <0>        -0.1102
     21 N2         13.4100   -7.8970    2.6218 N.pl3     1 <0>        -0.4176
     22 C18        14.1598   -7.5893    3.7272 C.2       1 <0>        -0.0570
     23 C19        15.3527   -8.1944    3.5702 C.2       1 <0>        -0.0122
     24 N3         15.3368   -8.8545    2.4028 N.2       1 <0>        -0.4774
     25 C20        14.1764   -8.6888    1.8282 C.2       1 <0>         0.1886
     26 O3          5.5937   -2.2638   -1.2873 O.3       1 <0>        -0.5425
     27 H1         -0.9596    1.9047    0.0260 H         1 <0>         0.1298
     28 H2          1.1525    3.1682    0.0080 H         1 <0>         0.1354
     29 H3          3.3038    1.9724   -0.0200 H         1 <0>         0.1332
     30 H4          1.2211   -1.7595   -0.0193 H         1 <0>         0.1233
     31 H5         -0.9260   -0.5563    0.0082 H         1 <0>         0.1286
     32 H6          3.0134   -2.4083    0.8497 H         1 <0>         0.0814
     33 H7          2.9951   -2.3988   -0.9302 H         1 <0>         0.0767
     34 H8          5.5173   -2.2145    0.7768 H         1 <0>         0.1354
     35 H9          4.3332   -4.4238    0.9467 H         1 <0>         0.1482
     36 H10         4.4130   -4.5641   -0.8259 H         1 <0>         0.1418
     37 H11         6.7881   -4.4257   -0.6637 H         1 <0>         0.4338
     38 H12         5.6461   -6.4198    1.1637 H         1 <0>         0.1456
     39 H13         5.7259   -6.5600   -0.6090 H         1 <0>         0.1536
     40 H14         7.6005   -7.7882    0.3763 H         1 <0>         0.1135
     41 H15         8.2252   -6.3492   -0.4648 H         1 <0>         0.0902
     42 H16         9.6686   -7.7738    0.0325 H         1 <0>         0.1390
     43 H17        11.9726   -8.5088    0.4873 H         1 <0>         0.1416
     44 H18        11.9296   -6.3551    4.1798 H         1 <0>         0.1452
     45 H19         9.6288   -5.6135    3.7196 H         1 <0>         0.1447
     46 H20        13.8531   -6.9784    4.5633 H         1 <0>         0.1808
     47 H21        16.1794   -8.1544    4.2640 H         1 <0>         0.1794
     48 H22        13.8770   -9.1089    0.8794 H         1 <0>         0.2097
     49 H23         5.1454   -2.5954   -2.0773 H         1 <0>         0.3903
     50 H24         6.7142   -4.2959    0.9773 H         1 <0>         0.4374
@<TRIPOS>BOND
     1    1    6 ar
     2    1    2 ar
     3    1   27 1
     4    2    3 ar
     5    2   28 1
     6    3    4 ar
     7    3   29 1
     8    4    5 ar
     9    4    7 1
    10    5    6 ar
    11    5   30 1
    12    6   31 1
    13    7    8 1
    14    8    9 1
    15    8   32 1
    16    8   33 1
    17    9   10 1
    18    9   26 1
    19    9   34 1
    20   10   11 1
    21   10   35 1
    22   10   36 1
    23   11   12 1
    24   11   37 1
    25   11   50 1
    26   12   13 1
    27   12   38 1
    28   12   39 1
    29   13   14 1
    30   13   40 1
    31   13   41 1
    32   14   15 1
    33   15   20 ar
    34   15   16 ar
    35   16   17 ar
    36   16   42 1
    37   17   18 ar
    38   17   43 1
    39   18   19 ar
    40   18   21 1
    41   19   20 ar
    42   19   44 1
    43   20   45 1
    44   21   25 1
    45   21   22 1
    46   22   23 2
    47   22   46 1
    48   23   24 1
    49   23   47 1
    50   24   25 2
    51   25   48 1
    52   26   49 1
@<TRIPOS>MOLECULE
CHEMBL98975__3
   49    51     0     0     0
SMALL
USER_CHARGES

@<TRIPOS>ATOM
      1 C1         -0.0167    1.3784    0.0096 C.ar      1 <0>        -0.1585
      2 C2          1.1698    2.0883    0.0021 C.ar      1 <0>        -0.0795
      3 C3          2.3773    1.4175   -0.0134 C.ar      1 <0>        -0.1512
      4 C4          2.3989    0.0304   -0.0210 C.ar      1 <0>         0.1275
      5 C5          1.2070   -0.6796   -0.0130 C.ar      1 <0>        -0.2118
      6 C6          0.0021   -0.0041    0.0020 C.ar      1 <0>        -0.0806
      7 O1          3.5855   -0.6319   -0.0368 O.3       1 <0>        -0.3030
      8 C7          3.5315   -2.0598   -0.0438 C.3       1 <0>         0.0290
      9 C8          4.9536   -2.6239   -0.0615 C.3       1 <0>         0.1112
     10 C9          4.8990   -4.1484    0.0567 C.3       1 <0>         0.0320
     11 N1          6.2643   -4.6807    0.1602 N.3       1 <0>        -0.6779
     12 C10         6.2511   -6.1451    0.2755 C.3       1 <0>         0.0592
     13 C11         7.6875   -6.6613    0.3810 C.3       1 <0>         0.0601
     14 O2          8.2744   -6.1917    1.5963 O.3       1 <0>        -0.2934
     15 C12         9.5582   -6.5631    1.8455 C.ar      1 <0>         0.1306
     16 C13        10.2392   -7.3583    0.9352 C.ar      1 <0>        -0.1849
     17 C14        11.5431   -7.7358    1.1880 C.ar      1 <0>        -0.0899
     18 C15        12.1727   -7.3191    2.3528 C.ar      1 <0>         0.0910
     19 C16        11.4911   -6.5232    3.2632 C.ar      1 <0>        -0.0891
     20 C17        10.1888   -6.1422    3.0073 C.ar      1 <0>        -0.1234
     21 N2         13.4980   -7.7030    2.6104 N.pl3     1 <0>        -0.4064
     22 C18        14.2417   -7.3742    3.7139 C.2       1 <0>        -0.0554
     23 C19        15.4499   -7.9475    3.5550 C.2       1 <0>        -0.0220
     24 N3         15.4491   -8.6092    2.3885 N.2       1 <0>        -0.4853
     25 C20        14.2836   -8.4751    1.8161 C.2       1 <0>         0.1845
     26 O3          5.5937   -2.2638   -1.2873 O.3       1 <0>        -0.5481
     27 H1         -0.9596    1.9047    0.0260 H         1 <0>         0.1246
     28 H2          1.1525    3.1682    0.0080 H         1 <0>         0.1304
     29 H3          3.3038    1.9724   -0.0200 H         1 <0>         0.1315
     30 H4          1.2211   -1.7595   -0.0193 H         1 <0>         0.1251
     31 H5         -0.9260   -0.5563    0.0082 H         1 <0>         0.1248
     32 H6          3.0134   -2.4083    0.8497 H         1 <0>         0.0732
     33 H7          2.9951   -2.3988   -0.9302 H         1 <0>         0.0649
     34 H8          5.5173   -2.2145    0.7768 H         1 <0>         0.1211
     35 H9          4.3332   -4.4238    0.9467 H         1 <0>         0.0871
     36 H10         4.4130   -4.5641   -0.8259 H         1 <0>         0.0376
     37 H11         6.8281   -4.3846   -0.6224 H         1 <0>         0.3503
     38 H12         5.6947   -6.4343    1.1670 H         1 <0>         0.0874
     39 H13         5.7744   -6.5746   -0.6056 H         1 <0>         0.0551
     40 H14         7.6830   -7.7513    0.3771 H         1 <0>         0.0713
     41 H15         8.2676   -6.2973   -0.4670 H         1 <0>         0.0651
     42 H16         9.7493   -7.6824    0.0289 H         1 <0>         0.1376
     43 H17        12.0730   -8.3554    0.4796 H         1 <0>         0.1347
     44 H18        11.9805   -6.1991    4.1697 H         1 <0>         0.1383
     45 H19         9.6598   -5.5195    3.7136 H         1 <0>         0.1431
     46 H20        13.9206   -6.7706    4.5499 H         1 <0>         0.1780
     47 H21        16.2767   -7.8847    4.2470 H         1 <0>         0.1752
     48 H22        13.9935   -8.9042    0.8684 H         1 <0>         0.2072
     49 H23         5.1454   -2.5954   -2.0773 H         1 <0>         0.3718
@<TRIPOS>BOND
     1    1    6 ar
     2    1    2 ar
     3    1   27 1
     4    2    3 ar
     5    2   28 1
     6    3    4 ar
     7    3   29 1
     8    4    5 ar
     9    4    7 1
    10    5    6 ar
    11    5   30 1
    12    6   31 1
    13    7    8 1
    14    8    9 1
    15    8   32 1
    16    8   33 1
    17    9   10 1
    18    9   26 1
    19    9   34 1
    20   10   11 1
    21   10   35 1
    22   10   36 1
    23   11   12 1
    24   11   37 1
    25   12   13 1
    26   12   38 1
    27   12   39 1
    28   13   14 1
    29   13   40 1
    30   13   41 1
    31   14   15 1
    32   15   20 ar
    33   15   16 ar
    34   16   17 ar
    35   16   42 1
    36   17   18 ar
    37   17   43 1
    38   18   19 ar
    39   18   21 1
    40   19   20 ar
    41   19   44 1
    42   20   45 1
    43   21   25 1
    44   21   22 1
    45   22   23 2
    46   22   46 1
    47   23   24 1
    48   23   47 1
    49   24   25 2
    50   25   48 1
    51   26   49 1
@<TRIPOS>MOLECULE
CHEMBL250146
   53    56     0     0     0
SMALL
USER_CHARGES

@<TRIPOS>ATOM
      1 C1         -0.0167    1.3788    0.0096 C.ar      1 <0>        -0.1662
      2 C2          1.1809    2.0726    0.0019 C.ar      1 <0>        -0.0459
      3 C3          2.3724    1.3389   -0.0134 C.ar      1 <0>        -0.0770
      4 C4          2.3057   -0.0550   -0.0203 C.ar      1 <0>         0.1528
      5 N1          1.1412   -0.6697   -0.0129 N.ar      1 <0>        -0.4808
      6 C5          0.0021   -0.0041    0.0020 C.ar      1 <0>         0.1221
      7 C6          3.6802    2.0290   -0.0227 C.2       1 <0>         0.1668
      8 N2          4.8991    1.5136   -0.0426 N.2       1 <0>        -0.4934
      9 C7          5.9697    2.2848   -0.0489 C.2       1 <0>         0.0968
     10 C8          5.8179    3.6470   -0.0345 C.2       1 <0>        -0.1935
     11 S1          4.0347    3.7811   -0.0179 S.3       1 <0>         0.0453
     12 C9          7.3257    1.6830   -0.0708 C.ar      1 <0>        -0.0411
     13 C10         8.4534    2.5022   -0.0711 C.ar      1 <0>        -0.0645
     14 C11         9.7126    1.9397   -0.0916 C.ar      1 <0>        -0.1381
     15 C12         9.8575    0.5594   -0.1119 C.ar      1 <0>         0.1169
     16 C13         8.7364   -0.2591   -0.1121 C.ar      1 <0>        -0.2021
     17 C14         7.4746    0.2973   -0.0854 C.ar      1 <0>        -0.0453
     18 O1         11.0997    0.0081   -0.1320 O.3       1 <0>        -0.3281
     19 C15        11.1759   -1.4187   -0.1522 C.3       1 <0>         0.0240
     20 C16        12.6435   -1.8507   -0.1730 C.3       1 <0>         0.0006
     21 N3         13.2913   -1.4446    1.0813 N.4       1 <0>        -0.5061
     22 C17        14.7004   -1.8594    1.0613 C.3       1 <0>        -0.0435
     23 C18        15.3751   -1.4365    2.3678 C.3       1 <0>         0.1416
     24 H1         14.8686   -1.9108    3.2084 H         1 <0>         0.1338
     25 C19        16.8207   -1.8620    2.3473 C.ar      1 <0>        -0.2003
     26 C20        17.2068   -3.0645    2.9200 C.ar      1 <0>        -0.0549
     27 C21        18.5473   -3.4151    2.8777 C.ar      1 <0>        -0.1642
     28 C22        19.4482   -2.5605    2.2704 C.ar      1 <0>         0.1226
     29 N4         19.0451   -1.4243    1.7362 N.ar      1 <0>        -0.4747
     30 C23        17.7772   -1.0616    1.7526 C.ar      1 <0>         0.1175
     31 O2         15.2986   -0.0162    2.5054 O.3       1 <0>        -0.5451
     32 H2         -0.9559    1.9117    0.0259 H         1 <0>         0.1488
     33 H3          1.1954    3.1525    0.0072 H         1 <0>         0.1407
     34 H4          3.2169   -0.6346   -0.0321 H         1 <0>         0.1665
     35 H5         -0.9309   -0.5480    0.0084 H         1 <0>         0.1666
     36 H6          6.5676    4.4244   -0.0364 H         1 <0>         0.2034
     37 H7          8.3413    3.5762   -0.0557 H         1 <0>         0.1381
     38 H8         10.5868    2.5740   -0.0921 H         1 <0>         0.1378
     39 H9          8.8524   -1.3327   -0.1286 H         1 <0>         0.1308
     40 H10         6.6027   -0.3401   -0.0807 H         1 <0>         0.1415
     41 H11        10.6913   -1.8211    0.7373 H         1 <0>         0.0890
     42 H12        10.6732   -1.7968   -1.0424 H         1 <0>         0.1121
     43 H13        12.7019   -2.9341   -0.2780 H         1 <0>         0.1525
     44 H14        13.1500   -1.3764   -1.0137 H         1 <0>         0.1439
     45 H15        13.2373   -0.4418    1.1785 H         1 <0>         0.4394
     46 H16        14.7588   -2.9428    0.9564 H         1 <0>         0.1457
     47 H17        15.2069   -1.3851    0.2207 H         1 <0>         0.1390
     48 H18        16.4804   -3.7123    3.3882 H         1 <0>         0.1411
     49 H19        18.8836   -4.3440    3.3140 H         1 <0>         0.1473
     50 H20        20.4943   -2.8263    2.2332 H         1 <0>         0.1673
     51 H21        17.4839   -0.1258    1.3001 H         1 <0>         0.1533
     52 H22        15.7296    0.4720    1.7906 H         1 <0>         0.3903
     53 H23        12.8225   -1.8837    1.8595 H         1 <0>         0.4292
@<TRIPOS>BOND
     1    1    6 ar
     2    1    2 ar
     3    1   32 1
     4    2    3 ar
     5    2   33 1
     6    3    4 ar
     7    3    7 1
     8    4    5 ar
     9    4   34 1
    10    5    6 ar
    11    6   35 1
    12    7   11 1
    13    7    8 2
    14    8    9 1
    15    9   10 2
    16    9   12 1
    17   10   11 1
    18   10   36 1
    19   12   17 ar
    20   12   13 ar
    21   13   14 ar
    22   13   37 1
    23   14   15 ar
    24   14   38 1
    25   15   16 ar
    26   15   18 1
    27   16   17 ar
    28   16   39 1
    29   17   40 1
    30   18   19 1
    31   19   20 1
    32   19   41 1
    33   19   42 1
    34   20   21 1
    35   20   43 1
    36   20   44 1
    37   21   22 1
    38   21   45 1
    39   21   53 1
    40   22   23 1
    41   22   46 1
    42   22   47 1
    43   23   24 1
    44   23   25 1
    45   23   31 1
    46   25   30 ar
    47   25   26 ar
    48   26   27 ar
    49   26   48 1
    50   27   28 ar
    51   27   49 1
    52   28   29 ar
    53   28   50 1
    54   29   30 ar
    55   30   51 1
    56   31   52 1
@<TRIPOS>MOLECULE
CHEMBL250146__1
   52    55     0     0     0
SMALL
USER_CHARGES

@<TRIPOS>ATOM
      1 C1         -0.0167    1.3788    0.0096 C.ar      1 <0>        -0.1683
      2 C2          1.1809    2.0726    0.0019 C.ar      1 <0>        -0.0482
      3 C3          2.3724    1.3389   -0.0134 C.ar      1 <0>        -0.0699
      4 C4          2.3057   -0.0550   -0.0203 C.ar      1 <0>         0.1519
      5 N1          1.1412   -0.6697   -0.0129 N.ar      1 <0>        -0.4806
      6 C5          0.0021   -0.0041    0.0020 C.ar      1 <0>         0.1172
      7 C6          3.6802    2.0290   -0.0227 C.2       1 <0>         0.1599
      8 N2          4.8991    1.5136   -0.0426 N.2       1 <0>        -0.4879
      9 C7          5.9697    2.2848   -0.0489 C.2       1 <0>         0.1110
     10 C8          5.8179    3.6470   -0.0345 C.2       1 <0>        -0.1952
     11 S1          4.0347    3.7811   -0.0179 S.3       1 <0>         0.0252
     12 C9          7.3257    1.6830   -0.0708 C.ar      1 <0>        -0.0693
     13 C10         8.4534    2.5022   -0.0711 C.ar      1 <0>        -0.0622
     14 C11         9.7126    1.9397   -0.0916 C.ar      1 <0>        -0.1515
     15 C12         9.8575    0.5594   -0.1119 C.ar      1 <0>         0.1435
     16 C13         8.7364   -0.2591   -0.1121 C.ar      1 <0>        -0.2099
     17 C14         7.4746    0.2973   -0.0854 C.ar      1 <0>        -0.0419
     18 O1         11.0997    0.0081   -0.1320 O.3       1 <0>        -0.3150
     19 C15        11.1759   -1.4187   -0.1522 C.3       1 <0>         0.0580
     20 C16        12.6435   -1.8507   -0.1730 C.3       1 <0>         0.0616
     21 N3         13.2913   -1.4446    1.0813 N.3       1 <0>        -0.6844
     22 C17        14.7050   -1.8439    1.0970 C.3       1 <0>         0.0317
     23 C18        15.3443   -1.4049    2.4159 C.3       1 <0>         0.1562
     24 H1         14.8235   -1.8792    3.2477 H         1 <0>         0.1193
     25 C19        16.7944   -1.8145    2.4321 C.ar      1 <0>        -0.1714
     26 C20        17.1802   -3.0088    3.0218 C.ar      1 <0>        -0.0634
     27 C21        18.5251   -3.3447    3.0131 C.ar      1 <0>        -0.1686
     28 C22        19.4305   -2.4842    2.4212 C.ar      1 <0>         0.0994
     29 N4         19.0277   -1.3561    1.8700 N.ar      1 <0>        -0.4807
     30 C23        17.7558   -1.0074    1.8544 C.ar      1 <0>         0.1070
     31 O2         15.2490    0.0153    2.5420 O.3       1 <0>        -0.5480
     32 H2         -0.9559    1.9117    0.0259 H         1 <0>         0.1463
     33 H3          1.1954    3.1525    0.0072 H         1 <0>         0.1399
     34 H4          3.2169   -0.6346   -0.0321 H         1 <0>         0.1683
     35 H5         -0.9309   -0.5480    0.0084 H         1 <0>         0.1643
     36 H6          6.5676    4.4244   -0.0364 H         1 <0>         0.2028
     37 H7          8.3413    3.5762   -0.0557 H         1 <0>         0.1315
     38 H8         10.5868    2.5740   -0.0921 H         1 <0>         0.1351
     39 H9          8.8524   -1.3327   -0.1286 H         1 <0>         0.1313
     40 H10         6.6027   -0.3401   -0.0807 H         1 <0>         0.1356
     41 H11        10.6913   -1.8211    0.7373 H         1 <0>         0.0757
     42 H12        10.6732   -1.7968   -1.0424 H         1 <0>         0.0699
     43 H13        12.7019   -2.9341   -0.2780 H         1 <0>         0.0937
     44 H14        13.1500   -1.3764   -1.0137 H         1 <0>         0.0428
     45 H15        13.1943   -0.4519    1.2336 H         1 <0>         0.3577
     46 H16        14.7776   -2.9272    1.0009 H         1 <0>         0.0841
     47 H17        15.2257   -1.3695    0.2652 H         1 <0>         0.0366
     48 H18        16.4502   -3.6615    3.4774 H         1 <0>         0.1380
     49 H19        18.8613   -4.2670    3.4636 H         1 <0>         0.1389
     50 H20        20.4801   -2.7386    2.4102 H         1 <0>         0.1584
     51 H21        17.4630   -0.0779    1.3888 H         1 <0>         0.1508
     52 H22        15.6912    0.5036    1.8341 H         1 <0>         0.3728
@<TRIPOS>BOND
     1    1    6 ar
     2    1    2 ar
     3    1   32 1
     4    2    3 ar
     5    2   33 1
     6    3    4 ar
     7    3    7 1
     8    4    5 ar
     9    4   34 1
    10    5    6 ar
    11    6   35 1
    12    7   11 1
    13    7    8 2
    14    8    9 1
    15    9   10 2
    16    9   12 1
    17   10   11 1
    18   10   36 1
    19   12   17 ar
    20   12   13 ar
    21   13   14 ar
    22   13   37 1
    23   14   15 ar
    24   14   38 1
    25   15   16 ar
    26   15   18 1
    27   16   17 ar
    28   16   39 1
    29   17   40 1
    30   18   19 1
    31   19   20 1
    32   19   41 1
    33   19   42 1
    34   20   21 1
    35   20   43 1
    36   20   44 1
    37   21   22 1
    38   21   45 1
    39   22   23 1
    40   22   46 1
    41   22   47 1
    42   23   24 1
    43   23   25 1
    44   23   31 1
    45   25   30 ar
    46   25   26 ar
    47   26   27 ar
    48   26   48 1
    49   27   28 ar
    50   27   49 1
    51   28   29 ar
    52   28   50 1
    53   29   30 ar
    54   30   51 1
    55   31   52 1
@<TRIPOS>MOLECULE
CHEMBL512099
   76    80     0     0     0
SMALL
USER_CHARGES

@<TRIPOS>ATOM
      1 C1          9.5092   -5.8451    3.8018 C.ar      1 <0>        -0.1060
      2 C2          9.4812   -4.6599    4.5127 C.ar      1 <0>        -0.1151
      3 C3          8.3222   -3.9078    4.5572 C.ar      1 <0>        -0.0955
      4 C4          7.1914   -4.3406    3.8903 C.ar      1 <0>        -0.1202
      5 C5          7.2196   -5.5254    3.1787 C.ar      1 <0>        -0.1068
      6 C6          8.3781   -6.2782    3.1353 C.ar      1 <0>        -0.1170
      7 C7          5.9276   -3.5212    3.9396 C.3       1 <0>         0.1453
      8 N1          5.9816   -2.4780    2.9124 N.pl3     1 <0>        -0.4416
      9 C8          6.4281   -1.1950    3.0804 C.2       1 <0>        -0.0427
     10 C9          6.3050   -0.5804    1.8885 C.2       1 <0>        -0.0230
     11 N2          5.7972   -1.4640    1.0165 N.2       1 <0>        -0.4751
     12 C10         5.6057   -2.6043    1.6216 C.2       1 <0>         0.2156
     13 C11         5.0531   -3.8540    0.9859 C.3       1 <0>        -0.0544
     14 C12         3.5470   -3.8041    1.0063 C.2       1 <0>         0.5234
     15 O1          2.9780   -2.8920    1.5679 O.2       1 <0>        -0.4945
     16 N3          2.8325   -4.7731    0.4006 N.am      1 <0>        -0.5551
     17 C13         3.5063   -5.9268   -0.2109 C.3       1 <0>         0.0925
     18 C14         2.8633   -6.1723   -1.5822 C.3       1 <0>        -0.1381
     19 C15         1.3938   -6.5411   -1.3798 C.3       1 <0>        -0.0817
     20 C16         0.7117   -5.5267   -0.5003 C.ar      1 <0>        -0.1102
     21 C17         1.4336   -4.7001    0.3483 C.ar      1 <0>         0.1758
     22 C18         0.7731   -3.7811    1.1552 C.ar      1 <0>        -0.1555
     23 C19        -0.6043   -3.6916    1.1163 C.ar      1 <0>        -0.0897
     24 C20        -1.3252   -4.5170    0.2733 C.ar      1 <0>        -0.1327
     25 C21        -0.6688   -5.4265   -0.5396 C.ar      1 <0>        -0.0883
     26 C22        -2.8283   -4.4189    0.2297 C.3       1 <0>        -0.0951
     27 C23        -3.2423   -3.3985   -0.8325 C.3       1 <0>        -0.0075
     28 N4         -4.7075   -3.3029   -0.8750 N.4       1 <0>        -0.5035
     29 C24        -5.1050   -2.3232   -1.8948 C.3       1 <0>        -0.0417
     30 C25        -6.6311   -2.2236   -1.9390 C.3       1 <0>         0.0858
     31 H1         -7.0028   -1.9053   -0.9651 H         1 <0>         0.1359
     32 C26        -7.0451   -1.2032   -3.0013 C.3       1 <0>         0.0297
     33 O2         -8.4623   -1.0241   -2.9630 O.3       1 <0>        -0.3028
     34 C27        -8.9971   -0.1439   -3.8496 C.ar      1 <0>         0.1165
     35 C28        -8.1753    0.5293   -4.7420 C.ar      1 <0>        -0.2095
     36 C29        -8.7215    1.4232   -5.6426 C.ar      1 <0>        -0.0799
     37 C30       -10.0857    1.6476   -5.6548 C.ar      1 <0>        -0.1475
     38 C31       -10.9068    0.9784   -4.7661 C.ar      1 <0>        -0.0766
     39 C32       -10.3663    0.0788   -3.8677 C.ar      1 <0>        -0.1447
     40 O3         -7.1826   -3.5010   -2.2651 O.3       1 <0>        -0.5435
     41 H2         10.4160   -6.4305    3.7633 H         1 <0>         0.1278
     42 H3         10.3647   -4.3217    5.0336 H         1 <0>         0.1283
     43 H4          8.3002   -2.9822    5.1132 H         1 <0>         0.1238
     44 H5          6.3359   -5.8637    2.6580 H         1 <0>         0.1181
     45 H6          8.4001   -7.2040    2.5797 H         1 <0>         0.1276
     46 H7          5.0686   -4.1668    3.7570 H         1 <0>         0.0947
     47 H8          5.8324   -3.0590    4.9222 H         1 <0>         0.1058
     48 H9          6.8061   -0.7593    3.9935 H         1 <0>         0.1763
     49 H10         6.5689    0.4444    1.6726 H         1 <0>         0.1724
     50 H11         5.4004   -3.9213   -0.0451 H         1 <0>         0.1289
     51 H12         5.3953   -4.7265    1.5424 H         1 <0>         0.1122
     52 H13         4.5678   -5.7118   -0.3340 H         1 <0>         0.0996
     53 H14         3.3777   -6.8064    0.4200 H         1 <0>         0.0857
     54 H15         2.9329   -5.2671   -2.1854 H         1 <0>         0.0767
     55 H16         3.3789   -6.9898   -2.0862 H         1 <0>         0.0940
     56 H17         0.8940   -6.5718   -2.3480 H         1 <0>         0.0834
     57 H18         1.3307   -7.5235   -0.9117 H         1 <0>         0.0831
     58 H19         1.3374   -3.1369    1.8131 H         1 <0>         0.1796
     59 H20        -1.1178   -2.9782    1.7439 H         1 <0>         0.1255
     60 H21        -1.2359   -6.0694   -1.1965 H         1 <0>         0.1265
     61 H22        -3.2490   -5.3932   -0.0190 H         1 <0>         0.0945
     62 H23        -3.2000   -4.1006    1.2037 H         1 <0>         0.0950
     63 H24        -2.8217   -2.4242   -0.5838 H         1 <0>         0.1343
     64 H25        -2.8706   -3.7168   -1.8065 H         1 <0>         0.1332
     65 H26        -5.0969   -4.2048   -1.1052 H         1 <0>         0.4329
     66 H27        -4.6844   -1.3489   -1.6461 H         1 <0>         0.1470
     67 H28        -4.7333   -2.6415   -2.8688 H         1 <0>         0.1396
     68 H29        -6.5530   -0.2513   -2.8019 H         1 <0>         0.0814
     69 H30        -6.7510   -1.5649   -3.9866 H         1 <0>         0.0763
     70 H31        -7.1096    0.3548   -4.7324 H         1 <0>         0.1234
     71 H32        -8.0822    1.9474   -6.3375 H         1 <0>         0.1285
     72 H33       -10.5107    2.3471   -6.3594 H         1 <0>         0.1296
     73 H34       -11.9721    1.1557   -4.7773 H         1 <0>         0.1352
     74 H35       -11.0085   -0.4470   -3.1767 H         1 <0>         0.1332
     75 H36        -6.8943   -3.8470   -3.1208 H         1 <0>         0.3898
     76 H37        -5.0516   -3.0082    0.0266 H         1 <0>         0.4309
@<TRIPOS>BOND
     1    1    6 ar
     2    1    2 ar
     3    1   41 1
     4    2    3 ar
     5    2   42 1
     6    3    4 ar
     7    3   43 1
     8    4    5 ar
     9    4    7 1
    10    5    6 ar
    11    5   44 1
    12    6   45 1
    13    7    8 1
    14    7   46 1
    15    7   47 1
    16    8   12 1
    17    8    9 1
    18    9   10 2
    19    9   48 1
    20   10   11 1
    21   10   49 1
    22   11   12 2
    23   12   13 1
    24   13   14 1
    25   13   50 1
    26   13   51 1
    27   14   15 2
    28   14   16 am
    29   16   21 1
    30   16   17 1
    31   17   18 1
    32   17   52 1
    33   17   53 1
    34   18   19 1
    35   18   54 1
    36   18   55 1
    37   19   20 1
    38   19   56 1
    39   19   57 1
    40   20   25 ar
    41   20   21 ar
    42   21   22 ar
    43   22   23 ar
    44   22   58 1
    45   23   24 ar
    46   23   59 1
    47   24   25 ar
    48   24   26 1
    49   25   60 1
    50   26   27 1
    51   26   61 1
    52   26   62 1
    53   27   28 1
    54   27   63 1
    55   27   64 1
    56   28   29 1
    57   28   65 1
    58   28   76 1
    59   29   30 1
    60   29   66 1
    61   29   67 1
    62   30   31 1
    63   30   32 1
    64   30   40 1
    65   32   33 1
    66   32   68 1
    67   32   69 1
    68   33   34 1
    69   34   39 ar
    70   34   35 ar
    71   35   36 ar
    72   35   70 1
    73   36   37 ar
    74   36   71 1
    75   37   38 ar
    76   37   72 1
    77   38   39 ar
    78   38   73 1
    79   39   74 1
    80   40   75 1
@<TRIPOS>MOLECULE
CHEMBL98773
   49    51     0     0     0
SMALL
USER_CHARGES

@<TRIPOS>ATOM
      1 C1         -0.0184    1.5028    0.0103 C.3       1 <0>        -0.1093
      2 C2          0.0021   -0.0041    0.0020 C.ar      1 <0>        -0.1075
      3 C3          0.0057   -0.6889   -1.1980 C.ar      1 <0>        -0.0812
      4 C4          0.0240   -2.0712   -1.2062 C.ar      1 <0>        -0.1421
      5 C5          0.0391   -2.7720   -0.0142 C.ar      1 <0>        -0.0865
      6 C6          0.0359   -2.0920    1.1881 C.ar      1 <0>        -0.2049
      7 C7          0.0230   -0.7046    1.1991 C.ar      1 <0>         0.1143
      8 O1          0.0255   -0.0332    2.3806 O.3       1 <0>        -0.2992
      9 C8          0.0475   -0.8196    3.5736 C.3       1 <0>         0.0295
     10 C9          0.0471    0.1040    4.7934 C.3       1 <0>         0.0857
     11 C10         0.1962   -0.7319    6.0661 C.3       1 <0>        -0.0428
     12 N1          0.1958    0.1549    7.2372 N.4       1 <0>        -0.5038
     13 C11         0.3390   -0.6477    8.4592 C.3       1 <0>         0.0491
     14 C12         0.3386    0.2621    9.6607 C.ar      1 <0>        -0.1854
     15 C13         1.5296    0.7823   10.1327 C.ar      1 <0>        -0.0573
     16 C14         1.5324    1.6164   11.2336 C.ar      1 <0>        -0.1379
     17 C15         0.3378    1.9326   11.8661 C.ar      1 <0>         0.1886
     18 C16        -0.8564    1.4093   11.3896 C.ar      1 <0>        -0.1363
     19 C17        -0.8535    0.5796   10.2854 C.ar      1 <0>        -0.0576
     20 N2          0.3375    2.7788   12.9843 N.pl3     1 <0>        -0.4281
     21 C18        -0.7582    3.1714   13.7090 C.2       1 <0>        -0.0575
     22 C19        -0.3088    3.9774   14.6896 C.2       1 <0>        -0.0051
     23 N3          1.0235    4.0777   14.5717 N.2       1 <0>        -0.4717
     24 C20         1.4232    3.3597   13.5577 C.2       1 <0>         0.1957
     25 O2         -1.1833    0.8293    4.8412 O.3       1 <0>        -0.5432
     26 H1          1.0042    1.8801    0.0026 H         1 <0>         0.0702
     27 H2         -0.5455    1.8639   -0.8728 H         1 <0>         0.0694
     28 H3         -0.5286    1.8543    0.9071 H         1 <0>         0.0695
     29 H4         -0.0060   -0.1439   -2.1303 H         1 <0>         0.1343
     30 H5          0.0261   -2.6047   -2.1453 H         1 <0>         0.1295
     31 H6          0.0529   -3.8519   -0.0233 H         1 <0>         0.1280
     32 H7          0.0477   -2.6398    2.1188 H         1 <0>         0.1233
     33 H8         -0.8338   -1.4603    3.6027 H         1 <0>         0.0758
     34 H9          0.9459   -1.4367    3.5855 H         1 <0>         0.0810
     35 H10         0.8790    0.8044    4.7191 H         1 <0>         0.1355
     36 H11        -0.6357   -1.4322    6.1404 H         1 <0>         0.1406
     37 H12         1.1347   -1.2851    6.0296 H         1 <0>         0.1480
     38 H13         0.9659    0.8032    7.1685 H         1 <0>         0.4303
     39 H14        -0.4929   -1.3480    8.5335 H         1 <0>         0.1402
     40 H15         1.2775   -1.2009    8.4227 H         1 <0>         0.1412
     41 H16         2.4587    0.5358    9.6402 H         1 <0>         0.1434
     42 H17         2.4630    2.0218   11.6023 H         1 <0>         0.1458
     43 H18        -1.7873    1.6533   11.8799 H         1 <0>         0.1444
     44 H19        -1.7827    0.1754    9.9118 H         1 <0>         0.1422
     45 H20        -1.7847    2.8888   13.5279 H         1 <0>         0.1835
     46 H21        -0.9162    4.4600   15.4410 H         1 <0>         0.1826
     47 H22         2.4457    3.2482   13.2281 H         1 <0>         0.2135
     48 H23        -1.9682    0.2684    4.9078 H         1 <0>         0.3897
     49 H24        -0.6729    0.6670    7.2710 H         1 <0>         0.4327
@<TRIPOS>BOND
     1    1    2 1
     2    1   26 1
     3    1   27 1
     4    1   28 1
     5    2    7 ar
     6    2    3 ar
     7    3    4 ar
     8    3   29 1
     9    4    5 ar
    10    4   30 1
    11    5    6 ar
    12    5   31 1
    13    6    7 ar
    14    6   32 1
    15    7    8 1
    16    8    9 1
    17    9   10 1
    18    9   33 1
    19    9   34 1
    20   10   11 1
    21   10   25 1
    22   10   35 1
    23   11   12 1
    24   11   36 1
    25   11   37 1
    26   12   13 1
    27   12   38 1
    28   12   49 1
    29   13   14 1
    30   13   39 1
    31   13   40 1
    32   14   19 ar
    33   14   15 ar
    34   15   16 ar
    35   15   41 1
    36   16   17 ar
    37   16   42 1
    38   17   18 ar
    39   17   20 1
    40   18   19 ar
    41   18   43 1
    42   19   44 1
    43   20   24 1
    44   20   21 1
    45   21   22 2
    46   21   45 1
    47   22   23 1
    48   22   46 1
    49   23   24 2
    50   24   47 1
    51   25   48 1
@<TRIPOS>MOLECULE
CHEMBL98773__1
   49    51     0     0     0
SMALL
USER_CHARGES

@<TRIPOS>ATOM
      1 C1         -0.0184    1.5028    0.0103 C.3       1 <0>        -0.1084
      2 C2          0.0021   -0.0041    0.0020 C.ar      1 <0>        -0.1075
      3 C3          0.0057   -0.6889   -1.1980 C.ar      1 <0>        -0.0812
      4 C4          0.0240   -2.0712   -1.2062 C.ar      1 <0>        -0.1421
      5 C5          0.0391   -2.7720   -0.0142 C.ar      1 <0>        -0.0865
      6 C6          0.0359   -2.0920    1.1881 C.ar      1 <0>        -0.2049
      7 C7          0.0230   -0.7046    1.1991 C.ar      1 <0>         0.1143
      8 O1          0.0255   -0.0332    2.3806 O.3       1 <0>        -0.2992
      9 C8          0.0475   -0.8196    3.5736 C.3       1 <0>         0.0294
     10 C9          0.0471    0.1040    4.7934 C.3       1 <0>         0.0859
     11 C10        -0.0552   -0.7352    6.0685 C.3       1 <0>        -0.0426
     12 N1         -0.1761    0.1540    7.2316 N.4       1 <0>        -0.5043
     13 C11        -0.2743   -0.6518    8.4559 C.3       1 <0>         0.0491
     14 C12        -0.3984    0.2604    9.6490 C.ar      1 <0>        -0.1855
     15 C13         0.7382    0.7026   10.3007 C.ar      1 <0>        -0.0567
     16 C14         0.6276    1.5388   11.3945 C.ar      1 <0>        -0.1377
     17 C15        -0.6261    1.9355   11.8392 C.ar      1 <0>         0.1886
     18 C16        -1.7654    1.4903   11.1828 C.ar      1 <0>        -0.1365
     19 C17        -1.6484    0.6581   10.0865 C.ar      1 <0>        -0.0583
     20 N2         -0.7416    2.7840   12.9498 N.pl3     1 <0>        -0.4280
     21 C18        -1.9068    3.2506   13.5012 C.2       1 <0>        -0.0576
     22 C19        -1.5604    4.0288   14.5441 C.2       1 <0>        -0.0051
     23 N3         -0.2221    4.0406   14.6316 N.2       1 <0>        -0.4717
     24 C20         0.2797    3.2940   13.6859 C.2       1 <0>         0.1956
     25 O2          1.2585    0.8616    4.8176 O.3       1 <0>        -0.5424
     26 H1          1.0042    1.8801    0.0026 H         1 <0>         0.0710
     27 H2         -0.5455    1.8639   -0.8728 H         1 <0>         0.0693
     28 H3         -0.5286    1.8543    0.9071 H         1 <0>         0.0679
     29 H4         -0.0060   -0.1439   -2.1303 H         1 <0>         0.1343
     30 H5          0.0261   -2.6047   -2.1453 H         1 <0>         0.1295
     31 H6          0.0529   -3.8519   -0.0233 H         1 <0>         0.1280
     32 H7          0.0477   -2.6398    2.1188 H         1 <0>         0.1233
     33 H8         -0.8338   -1.4603    3.6027 H         1 <0>         0.0805
     34 H9          0.9459   -1.4367    3.5855 H         1 <0>         0.0763
     35 H10        -0.8044    0.7821    4.7354 H         1 <0>         0.1343
     36 H11        -0.9329   -1.3789    6.0105 H         1 <0>         0.1473
     37 H12         0.8394   -1.3492    6.1721 H         1 <0>         0.1413
     38 H13         0.6364    0.7498    7.2853 H         1 <0>         0.4333
     39 H14        -1.1521   -1.2955    8.3978 H         1 <0>         0.1408
     40 H15         0.6203   -1.2658    8.5595 H         1 <0>         0.1406
     41 H16         1.7134    0.3936    9.9542 H         1 <0>         0.1432
     42 H17         1.5157    1.8833   11.9035 H         1 <0>         0.1458
     43 H18        -2.7421    1.7970   11.5267 H         1 <0>         0.1444
     44 H19        -2.5342    0.3147    9.5729 H         1 <0>         0.1424
     45 H20        -2.9100    3.0356   13.1638 H         1 <0>         0.1834
     46 H21        -2.2424    4.5532   15.1971 H         1 <0>         0.1826
     47 H22         1.3309    3.1141   13.5155 H         1 <0>         0.2135
     48 H23         2.0591    0.3217    4.8688 H         1 <0>         0.3903
     49 H24        -1.0043    0.7224    7.1357 H         1 <0>         0.4299
@<TRIPOS>BOND
     1    1    2 1
     2    1   26 1
     3    1   27 1
     4    1   28 1
     5    2    7 ar
     6    2    3 ar
     7    3    4 ar
     8    3   29 1
     9    4    5 ar
    10    4   30 1
    11    5    6 ar
    12    5   31 1
    13    6    7 ar
    14    6   32 1
    15    7    8 1
    16    8    9 1
    17    9   10 1
    18    9   33 1
    19    9   34 1
    20   10   11 1
    21   10   25 1
    22   10   35 1
    23   11   12 1
    24   11   36 1
    25   11   37 1
    26   12   13 1
    27   12   38 1
    28   12   49 1
    29   13   14 1
    30   13   39 1
    31   13   40 1
    32   14   19 ar
    33   14   15 ar
    34   15   16 ar
    35   15   41 1
    36   16   17 ar
    37   16   42 1
    38   17   18 ar
    39   17   20 1
    40   18   19 ar
    41   18   43 1
    42   19   44 1
    43   20   24 1
    44   20   21 1
    45   21   22 2
    46   21   45 1
    47   22   23 1
    48   22   46 1
    49   23   24 2
    50   24   47 1
    51   25   48 1
@<TRIPOS>MOLECULE
CHEMBL551831
   70    73     0     0     0
SMALL
USER_CHARGES

@<TRIPOS>ATOM
      1 C1          9.3243    1.5466    1.3217 C.ar      1 <0>        -0.1115
      2 C2          8.7002    0.7449    2.2590 C.ar      1 <0>        -0.1205
      3 C3          7.5992   -0.0097    1.8998 C.ar      1 <0>        -0.1069
      4 C4          7.1219    0.0377    0.6033 C.ar      1 <0>        -0.0758
      5 C5          7.7455    0.8402   -0.3338 C.ar      1 <0>        -0.0819
      6 C6          8.8474    1.5937    0.0251 C.ar      1 <0>        -0.1223
      7 C7          5.9222   -0.7857    0.2114 C.3       1 <0>        -0.0214
      8 C8          4.7760    0.1296   -0.1344 C.ar      1 <0>        -0.0882
      9 C9          4.8322    0.9067   -1.2762 C.ar      1 <0>        -0.1101
     10 C10         3.7808    1.7463   -1.5934 C.ar      1 <0>        -0.1145
     11 C11         2.6730    1.8084   -0.7690 C.ar      1 <0>        -0.1113
     12 C12         2.6163    1.0306    0.3724 C.ar      1 <0>        -0.1135
     13 C13         3.6659    0.1878    0.6873 C.ar      1 <0>        -0.1068
     14 C14         6.2651   -1.6353   -0.9851 C.2       1 <0>         0.5286
     15 O1          7.3746   -1.5778   -1.4717 O.2       1 <0>        -0.5010
     16 N1          5.3390   -2.4590   -1.5145 N.am      1 <0>        -0.6741
     17 C15         5.6873   -3.3260   -2.5561 C.ar      1 <0>         0.1716
     18 C16         4.7602   -3.6365   -3.5423 C.ar      1 <0>        -0.1434
     19 C17         5.1071   -4.4926   -4.5691 C.ar      1 <0>        -0.0855
     20 C18         6.3759   -5.0403   -4.6158 C.ar      1 <0>        -0.1295
     21 C19         7.3012   -4.7334   -3.6350 C.ar      1 <0>        -0.0856
     22 C20         6.9625   -3.8732   -2.6090 C.ar      1 <0>        -0.1194
     23 C21         6.7510   -5.9741   -5.7376 C.3       1 <0>        -0.0966
     24 C22         7.3339   -5.1672   -6.8995 C.3       1 <0>        -0.0077
     25 N2          7.6996   -6.0774   -7.9930 N.4       1 <0>        -0.5036
     26 C23         8.2592   -5.3026   -9.1086 C.3       1 <0>        -0.0419
     27 C24         8.6400   -6.2506  -10.2475 C.3       1 <0>         0.0858
     28 H1          7.7533   -6.7864  -10.5861 H         1 <0>         0.1362
     29 C25         9.2230   -5.4437  -11.4094 C.3       1 <0>         0.0288
     30 O2          9.4705   -6.3130  -12.5162 O.3       1 <0>        -0.3011
     31 C26         9.9928   -5.7502  -13.6385 C.ar      1 <0>         0.1088
     32 C27        10.2661   -4.3907  -13.6698 C.ar      1 <0>        -0.1913
     33 C28        10.7966   -3.8190  -14.8098 C.ar      1 <0>        -0.1061
     34 C29        11.0566   -4.6045  -15.9230 C.ar      1 <0>         0.0804
     35 C30        10.7842   -5.9640  -15.8914 C.ar      1 <0>        -0.1027
     36 C31        10.2576   -6.5365  -14.7499 C.ar      1 <0>        -0.1260
     37 O3         11.5781   -4.0415  -17.0456 O.3       1 <0>        -0.4957
     38 O4          9.6139   -7.1872   -9.7822 O.3       1 <0>        -0.5434
     39 H2         10.1819    2.1396    1.6035 H         1 <0>         0.1238
     40 H3          9.0731    0.7078    3.2720 H         1 <0>         0.1254
     41 H4          7.1120   -0.6367    2.6319 H         1 <0>         0.1224
     42 H5          7.3731    0.8767   -1.3469 H         1 <0>         0.1179
     43 H6          9.3348    2.2203   -0.7072 H         1 <0>         0.1223
     44 H7          5.6354   -1.4288    1.0434 H         1 <0>         0.1176
     45 H8          5.6978    0.8582   -1.9203 H         1 <0>         0.1195
     46 H9          3.8251    2.3539   -2.4851 H         1 <0>         0.1247
     47 H10         1.8519    2.4648   -1.0164 H         1 <0>         0.1262
     48 H11         1.7509    1.0794    1.0167 H         1 <0>         0.1282
     49 H12         3.6200   -0.4226    1.5770 H         1 <0>         0.1269
     50 H13         4.4310   -2.4508   -1.1734 H         1 <0>         0.4167
     51 H14         3.7689   -3.2094   -3.5062 H         1 <0>         0.1322
     52 H15         4.3865   -4.7348   -5.3362 H         1 <0>         0.1284
     53 H16         8.2913   -5.1631   -3.6741 H         1 <0>         0.1276
     54 H17         7.6873   -3.6298   -1.8461 H         1 <0>         0.1406
     55 H18         7.4938   -6.6885   -5.3827 H         1 <0>         0.0961
     56 H19         5.8643   -6.5099   -6.0762 H         1 <0>         0.0961
     57 H20         6.5912   -4.4527   -7.2544 H         1 <0>         0.1343
     58 H21         8.2207   -4.6313   -6.5609 H         1 <0>         0.1339
     59 H22         8.3872   -6.7387   -7.6645 H         1 <0>         0.4335
     60 H23         7.5164   -4.5882   -9.4635 H         1 <0>         0.1471
     61 H24         9.1460   -4.7668   -8.7700 H         1 <0>         0.1398
     62 H25         8.5145   -4.6703  -11.7061 H         1 <0>         0.0820
     63 H26        10.1579   -4.9791  -11.0961 H         1 <0>         0.0769
     64 H27        10.0637   -3.7791  -12.8030 H         1 <0>         0.1285
     65 H28        11.0088   -2.7603  -14.8345 H         1 <0>         0.1352
     66 H29        10.9862   -6.5756  -16.7583 H         1 <0>         0.1418
     67 H30        10.0490   -7.5959  -14.7239 H         1 <0>         0.1388
     68 H31        12.5448   -4.0348  -17.0696 H         1 <0>         0.3940
     69 H32        10.4313   -6.7797   -9.4648 H         1 <0>         0.3902
     70 H33         6.8787   -6.5734   -8.3064 H         1 <0>         0.4309
@<TRIPOS>BOND
     1    1    6 ar
     2    1    2 ar
     3    1   39 1
     4    2    3 ar
     5    2   40 1
     6    3    4 ar
     7    3   41 1
     8    4    5 ar
     9    4    7 1
    10    5    6 ar
    11    5   42 1
    12    6   43 1
    13    7    8 1
    14    7   14 1
    15    7   44 1
    16    8   13 ar
    17    8    9 ar
    18    9   10 ar
    19    9   45 1
    20   10   11 ar
    21   10   46 1
    22   11   12 ar
    23   11   47 1
    24   12   13 ar
    25   12   48 1
    26   13   49 1
    27   14   15 2
    28   14   16 am
    29   16   17 1
    30   16   50 1
    31   17   22 ar
    32   17   18 ar
    33   18   19 ar
    34   18   51 1
    35   19   20 ar
    36   19   52 1
    37   20   21 ar
    38   20   23 1
    39   21   22 ar
    40   21   53 1
    41   22   54 1
    42   23   24 1
    43   23   55 1
    44   23   56 1
    45   24   25 1
    46   24   57 1
    47   24   58 1
    48   25   26 1
    49   25   59 1
    50   25   70 1
    51   26   27 1
    52   26   60 1
    53   26   61 1
    54   27   28 1
    55   27   29 1
    56   27   38 1
    57   29   30 1
    58   29   62 1
    59   29   63 1
    60   30   31 1
    61   31   36 ar
    62   31   32 ar
    63   32   33 ar
    64   32   64 1
    65   33   34 ar
    66   33   65 1
    67   34   35 ar
    68   34   37 1
    69   35   36 ar
    70   35   66 1
    71   36   67 1
    72   37   68 1
    73   38   69 1
@<TRIPOS>MOLECULE
CHEMBL43196
   58    60     0     0     0
SMALL
USER_CHARGES

@<TRIPOS>ATOM
      1 C1         -0.0164    1.3568    0.0095 C.ar      1 <0>        -0.0997
      2 C2          1.1685    2.0903    0.0021 C.ar      1 <0>        -0.1194
      3 C3          2.3786    1.4667   -0.0127 C.ar      1 <0>        -0.0920
      4 C4          2.4373    0.0638   -0.0208 C.ar      1 <0>        -0.0665
      5 C5          1.2329   -0.6827   -0.0133 C.ar      1 <0>        -0.0208
      6 C6          0.0021   -0.0041    0.0020 C.ar      1 <0>        -0.1123
      7 C7          1.2917   -2.0866   -0.0208 C.ar      1 <0>        -0.1294
      8 C8          2.5010   -2.7126   -0.0352 C.ar      1 <0>        -0.0843
      9 C9          3.6868   -1.9838   -0.0426 C.ar      1 <0>        -0.2158
     10 C10         3.6713   -0.6172   -0.0357 C.ar      1 <0>         0.1353
     11 O1          4.8369    0.0798   -0.0435 O.3       1 <0>        -0.2975
     12 C11         6.0470   -0.6800   -0.0585 C.3       1 <0>         0.0287
     13 C12         7.2459    0.2705   -0.0655 C.3       1 <0>         0.0853
     14 C13         8.5370   -0.5381   -0.2073 C.3       1 <0>        -0.0417
     15 N1          9.6881    0.3746   -0.2139 N.4       1 <0>        -0.5019
     16 C14        10.9278   -0.4018   -0.3501 C.3       1 <0>        -0.0175
     17 C15        12.1267    0.5487   -0.3570 C.3       1 <0>         0.0863
     18 N2         13.3629   -0.2255   -0.4928 N.pl3     1 <0>        -1.1146
     19 S1         14.7761    0.5357   -0.9002 S.o2      1 <0>         2.6974
     20 O2         15.7839   -0.4658   -0.9262 O.2       1 <0>        -0.9247
     21 O3         14.4866    1.3545   -2.0249 O.2       1 <0>        -0.9355
     22 C16        15.1820    1.6244    0.4243 C.ar      1 <0>        -0.7082
     23 C17        14.7128    2.9250    0.4183 C.ar      1 <0>         0.0396
     24 C18        15.0312    3.7795    1.4566 C.ar      1 <0>        -0.1450
     25 C19        15.8195    3.3332    2.5027 C.ar      1 <0>         0.1055
     26 C20        16.2882    2.0318    2.5084 C.ar      1 <0>        -0.6947
     27 C21        15.9647    1.1764    1.4717 C.ar      1 <0>         0.0941
     28 S2         17.2920    1.4625    3.8399 S.o2      1 <0>         2.6961
     29 O4         16.6272    1.8370    5.0386 O.2       1 <0>        -0.9381
     30 O5         17.6304    0.1141    3.5458 O.2       1 <0>        -0.9459
     31 N3         18.7043    2.3261    3.7924 N.pl3     1 <0>        -1.2404
     32 Cl1        16.2204    4.4063    3.8071 Cl        1 <0>        -0.0043
     33 O6          7.2771    1.0069    1.1588 O.3       1 <0>        -0.5432
     34 H1         -0.9633    1.8759    0.0259 H         1 <0>         0.1293
     35 H2          1.1262    3.1695    0.0079 H         1 <0>         0.1276
     36 H3          3.2887    2.0480   -0.0187 H         1 <0>         0.1299
     37 H4         -0.9241   -0.5596    0.0082 H         1 <0>         0.1343
     38 H5          0.3810   -2.6672   -0.0149 H         1 <0>         0.1331
     39 H6          2.5405   -3.7919   -0.0406 H         1 <0>         0.1283
     40 H7          4.6324   -2.5056   -0.0537 H         1 <0>         0.1234
     41 H8          6.0900   -1.3125    0.8281 H         1 <0>         0.0784
     42 H9          6.0731   -1.3042   -0.9517 H         1 <0>         0.0836
     43 H10         7.1565    0.9621   -0.9033 H         1 <0>         0.1378
     44 H11         8.6265   -1.2296    0.6305 H         1 <0>         0.1430
     45 H12         8.5133   -1.0998   -1.1411 H         1 <0>         0.1508
     46 H13         9.6053    1.0147   -0.9895 H         1 <0>         0.4351
     47 H14        11.0172   -1.0933    0.4877 H         1 <0>         0.1442
     48 H15        10.9040   -0.9635   -1.2839 H         1 <0>         0.1469
     49 H16        12.0372    1.2403   -1.1948 H         1 <0>         0.1077
     50 H17        12.1504    1.1104    0.5768 H         1 <0>         0.0912
     51 H18        13.3537   -1.1840   -0.3440 H         1 <0>         0.4303
     52 H19        14.0976    3.2733   -0.3982 H         1 <0>         0.1600
     53 H20        14.6653    4.7956    1.4515 H         1 <0>         0.1606
     54 H21        16.3273    0.1591    1.4781 H         1 <0>         0.1736
     55 H22        19.1905    2.5061    4.6122 H         1 <0>         0.4291
     56 H23        19.0452    2.6519    2.9447 H         1 <0>         0.4198
     57 H24         7.3557    0.4542    1.9483 H         1 <0>         0.3910
     58 H25         9.7101    0.8945    0.6505 H         1 <0>         0.4361
@<TRIPOS>BOND
     1    1    6 ar
     2    1    2 ar
     3    1   34 1
     4    2    3 ar
     5    2   35 1
     6    3    4 ar
     7    3   36 1
     8    4   10 ar
     9    4    5 ar
    10    5    6 ar
    11    5    7 ar
    12    6   37 1
    13    7    8 ar
    14    7   38 1
    15    8    9 ar
    16    8   39 1
    17    9   10 ar
    18    9   40 1
    19   10   11 1
    20   11   12 1
    21   12   13 1
    22   12   41 1
    23   12   42 1
    24   13   14 1
    25   13   33 1
    26   13   43 1
    27   14   15 1
    28   14   44 1
    29   14   45 1
    30   15   16 1
    31   15   46 1
    32   15   58 1
    33   16   17 1
    34   16   47 1
    35   16   48 1
    36   17   18 1
    37   17   49 1
    38   17   50 1
    39   18   19 1
    40   18   51 1
    41   19   20 2
    42   19   21 2
    43   19   22 1
    44   22   27 ar
    45   22   23 ar
    46   23   24 ar
    47   23   52 1
    48   24   25 ar
    49   24   53 1
    50   25   26 ar
    51   25   32 1
    52   26   27 ar
    53   26   28 1
    54   27   54 1
    55   28   29 2
    56   28   30 2
    57   28   31 1
    58   31   55 1
    59   31   56 1
    60   33   57 1
@<TRIPOS>MOLECULE
CHEMBL43196__1
   57    59     0     0     0
SMALL
USER_CHARGES

@<TRIPOS>ATOM
      1 C1         -0.0164    1.3568    0.0095 C.ar      1 <0>        -0.1014
      2 C2          1.1685    2.0903    0.0021 C.ar      1 <0>        -0.1290
      3 C3          2.3786    1.4667   -0.0127 C.ar      1 <0>        -0.0827
      4 C4          2.4373    0.0638   -0.0208 C.ar      1 <0>        -0.0712
      5 C5          1.2329   -0.6827   -0.0133 C.ar      1 <0>        -0.0188
      6 C6          0.0021   -0.0041    0.0020 C.ar      1 <0>        -0.1181
      7 C7          1.2917   -2.0866   -0.0208 C.ar      1 <0>        -0.1454
      8 C8          2.5010   -2.7126   -0.0352 C.ar      1 <0>        -0.0756
      9 C9          3.6868   -1.9838   -0.0426 C.ar      1 <0>        -0.2259
     10 C10         3.6713   -0.6172   -0.0357 C.ar      1 <0>         0.1479
     11 O1          4.8369    0.0798   -0.0435 O.3       1 <0>        -0.2977
     12 C11         6.0470   -0.6800   -0.0585 C.3       1 <0>         0.0268
     13 C12         7.2459    0.2705   -0.0655 C.3       1 <0>         0.1144
     14 C13         8.5370   -0.5381   -0.2073 C.3       1 <0>         0.0305
     15 N1          9.6881    0.3746   -0.2139 N.3       1 <0>        -0.6764
     16 C14        10.9482   -0.3684   -0.3489 C.3       1 <0>         0.0520
     17 C15        12.1214    0.6137   -0.3519 C.3       1 <0>         0.1126
     18 N2         13.3781   -0.1272   -0.4865 N.pl3     1 <0>        -1.1144
     19 S1         14.7713    0.6719   -0.8899 S.o2      1 <0>         2.6986
     20 O2         15.8054   -0.3024   -0.9156 O.2       1 <0>        -0.9435
     21 O3         14.4624    1.4847   -2.0138 O.2       1 <0>        -0.9441
     22 C16        15.1457    1.7688    0.4372 C.ar      1 <0>        -0.6995
     23 C17        14.6421    3.0564    0.4325 C.ar      1 <0>         0.0485
     24 C18        14.9357    3.9173    1.4728 C.ar      1 <0>        -0.1434
     25 C19        15.7335    3.4903    2.5197 C.ar      1 <0>         0.0972
     26 C20        16.2367    2.2017    2.5241 C.ar      1 <0>        -0.6937
     27 C21        15.9380    1.3398    1.4854 C.ar      1 <0>         0.0948
     28 S2         17.2527    1.6571    3.8567 S.o2      1 <0>         2.6984
     29 O4         16.5758    2.0117    5.0547 O.2       1 <0>        -0.9395
     30 O5         17.6273    0.3186    3.5609 O.2       1 <0>        -0.9515
     31 N3         18.6415    2.5579    3.8134 N.pl3     1 <0>        -1.2446
     32 Cl1        16.1033    4.5713    3.8267 Cl        1 <0>        -0.0153
     33 O6          7.2771    1.0069    1.1588 O.3       1 <0>        -0.5367
     34 H1         -0.9633    1.8759    0.0259 H         1 <0>         0.1251
     35 H2          1.1262    3.1695    0.0079 H         1 <0>         0.1252
     36 H3          3.2887    2.0480   -0.0187 H         1 <0>         0.1326
     37 H4         -0.9241   -0.5596    0.0082 H         1 <0>         0.1301
     38 H5          0.3810   -2.6672   -0.0149 H         1 <0>         0.1287
     39 H6          2.5405   -3.7919   -0.0406 H         1 <0>         0.1250
     40 H7          4.6324   -2.5056   -0.0537 H         1 <0>         0.1257
     41 H8          6.0900   -1.3125    0.8281 H         1 <0>         0.0694
     42 H9          6.0731   -1.3042   -0.9517 H         1 <0>         0.0728
     43 H10         7.1565    0.9621   -0.9033 H         1 <0>         0.1093
     44 H11         8.6265   -1.2296    0.6305 H         1 <0>         0.0825
     45 H12         8.5133   -1.0998   -1.1411 H         1 <0>         0.0467
     46 H13         9.5966    1.0667   -0.9424 H         1 <0>         0.3484
     47 H14        11.0544   -1.0587    0.4879 H         1 <0>         0.0835
     48 H15        10.9412   -0.9289   -1.2837 H         1 <0>         0.0438
     49 H16        12.0153    1.3040   -1.1887 H         1 <0>         0.0837
     50 H17        12.1285    1.1742    0.5829 H         1 <0>         0.0788
     51 H18        13.3941   -1.0859   -0.3394 H         1 <0>         0.4234
     52 H19        14.0194    3.3896   -0.3847 H         1 <0>         0.1622
     53 H20        14.5429    4.9233    1.4687 H         1 <0>         0.1595
     54 H21        16.3274    0.3325    1.4908 H         1 <0>         0.1724
     55 H22        18.7593    3.2350    3.1288 H         1 <0>         0.4169
     56 H23        19.3373    2.4085    4.4725 H         1 <0>         0.4261
     57 H24         7.3557    0.4542    1.9483 H         1 <0>         0.3749
@<TRIPOS>BOND
     1    1    6 ar
     2    1    2 ar
     3    1   34 1
     4    2    3 ar
     5    2   35 1
     6    3    4 ar
     7    3   36 1
     8    4   10 ar
     9    4    5 ar
    10    5    6 ar
    11    5    7 ar
    12    6   37 1
    13    7    8 ar
    14    7   38 1
    15    8    9 ar
    16    8   39 1
    17    9   10 ar
    18    9   40 1
    19   10   11 1
    20   11   12 1
    21   12   13 1
    22   12   41 1
    23   12   42 1
    24   13   14 1
    25   13   33 1
    26   13   43 1
    27   14   15 1
    28   14   44 1
    29   14   45 1
    30   15   16 1
    31   15   46 1
    32   16   17 1
    33   16   47 1
    34   16   48 1
    35   17   18 1
    36   17   49 1
    37   17   50 1
    38   18   19 1
    39   18   51 1
    40   19   20 2
    41   19   21 2
    42   19   22 1
    43   22   27 ar
    44   22   23 ar
    45   23   24 ar
    46   23   52 1
    47   24   25 ar
    48   24   53 1
    49   25   26 ar
    50   25   32 1
    51   26   27 ar
    52   26   28 1
    53   27   54 1
    54   28   29 2
    55   28   30 2
    56   28   31 1
    57   31   55 1
    58   31   56 1
    59   33   57 1
@<TRIPOS>MOLECULE
CHEMBL43196__2
   58    60     0     0     0
SMALL
USER_CHARGES

@<TRIPOS>ATOM
      1 C1         -0.0164    1.3568    0.0095 C.ar      1 <0>        -0.0997
      2 C2          1.1685    2.0903    0.0021 C.ar      1 <0>        -0.1194
      3 C3          2.3786    1.4667   -0.0127 C.ar      1 <0>        -0.0920
      4 C4          2.4373    0.0638   -0.0208 C.ar      1 <0>        -0.0665
      5 C5          1.2329   -0.6827   -0.0133 C.ar      1 <0>        -0.0209
      6 C6          0.0021   -0.0041    0.0020 C.ar      1 <0>        -0.1123
      7 C7          1.2917   -2.0866   -0.0208 C.ar      1 <0>        -0.1294
      8 C8          2.5010   -2.7126   -0.0352 C.ar      1 <0>        -0.0843
      9 C9          3.6868   -1.9838   -0.0426 C.ar      1 <0>        -0.2158
     10 C10         3.6713   -0.6172   -0.0357 C.ar      1 <0>         0.1352
     11 O1          4.8369    0.0798   -0.0435 O.3       1 <0>        -0.2976
     12 C11         6.0470   -0.6800   -0.0585 C.3       1 <0>         0.0286
     13 C12         7.2459    0.2705   -0.0655 C.3       1 <0>         0.0856
     14 C13         8.5394   -0.5393    0.0442 C.3       1 <0>        -0.0416
     15 N1          9.6823    0.3766    0.1580 N.4       1 <0>        -0.5024
     16 C14        10.9243   -0.4009    0.2633 C.3       1 <0>        -0.0175
     17 C15        12.1146    0.5530    0.3818 C.3       1 <0>         0.0862
     18 N2         13.3532   -0.2224    0.4868 N.pl3     1 <0>        -1.1147
     19 S1         14.8160    0.5185    0.2553 S.o2      1 <0>         2.6973
     20 O2         15.8108   -0.4778    0.4475 O.2       1 <0>        -0.9247
     21 O3         14.7074    1.2642   -0.9495 O.2       1 <0>        -0.9354
     22 C16        15.0184    1.6898    1.5560 C.ar      1 <0>        -0.7081
     23 C17        14.5622    2.9852    1.3965 C.ar      1 <0>         0.0396
     24 C18        14.7211    3.9044    2.4161 C.ar      1 <0>        -0.1451
     25 C19        15.3364    3.5280    3.5970 C.ar      1 <0>         0.1054
     26 C20        15.7922    2.2317    3.7561 C.ar      1 <0>        -0.6947
     27 C21        15.6281    1.3117    2.7374 C.ar      1 <0>         0.0941
     28 S2         16.5760    1.7515    5.2593 S.o2      1 <0>         2.6962
     29 O4         15.7362    2.1969    6.3155 O.2       1 <0>        -0.9381
     30 O5         16.9490    0.3890    5.1056 O.2       1 <0>        -0.9459
     31 N3         17.9830    2.6170    5.3761 N.pl3     1 <0>        -1.2404
     32 Cl1        15.5369    4.6823    4.8780 Cl        1 <0>        -0.0043
     33 O6          7.2539    1.0183   -1.2832 O.3       1 <0>        -0.5423
     34 H1         -0.9633    1.8759    0.0259 H         1 <0>         0.1294
     35 H2          1.1262    3.1695    0.0079 H         1 <0>         0.1276
     36 H3          3.2887    2.0480   -0.0187 H         1 <0>         0.1298
     37 H4         -0.9241   -0.5596    0.0082 H         1 <0>         0.1343
     38 H5          0.3810   -2.6672   -0.0149 H         1 <0>         0.1331
     39 H6          2.5405   -3.7919   -0.0406 H         1 <0>         0.1283
     40 H7          4.6324   -2.5056   -0.0537 H         1 <0>         0.1234
     41 H8          6.0900   -1.3125    0.8281 H         1 <0>         0.0830
     42 H9          6.0731   -1.3042   -0.9517 H         1 <0>         0.0789
     43 H10         7.1725    0.9542    0.7803 H         1 <0>         0.1363
     44 H11         8.4953   -1.1767    0.9272 H         1 <0>         0.1497
     45 H12         8.6571   -1.1583   -0.8453 H         1 <0>         0.1441
     46 H13         9.7232    0.9667   -0.6595 H         1 <0>         0.4379
     47 H14        10.8801   -1.0383    1.1463 H         1 <0>         0.1448
     48 H15        11.0419   -1.0199   -0.6262 H         1 <0>         0.1463
     49 H16        12.1588    1.1905   -0.5012 H         1 <0>         0.1078
     50 H17        11.9970    1.1720    1.2713 H         1 <0>         0.0912
     51 H18        13.3164   -1.1697    0.6920 H         1 <0>         0.4304
     52 H19        14.0819    3.2789    0.4749 H         1 <0>         0.1601
     53 H20        14.3653    4.9165    2.2912 H         1 <0>         0.1606
     54 H21        15.9803    0.2985    2.8630 H         1 <0>         0.1736
     55 H22        18.3380    2.8502    6.2482 H         1 <0>         0.4291
     56 H23        18.4521    2.8909    4.5725 H         1 <0>         0.4198
     57 H24         7.3175    0.4730   -2.0792 H         1 <0>         0.3919
     58 H25         9.5734    0.9496    0.9813 H         1 <0>         0.4335
@<TRIPOS>BOND
     1    1    6 ar
     2    1    2 ar
     3    1   34 1
     4    2    3 ar
     5    2   35 1
     6    3    4 ar
     7    3   36 1
     8    4   10 ar
     9    4    5 ar
    10    5    6 ar
    11    5    7 ar
    12    6   37 1
    13    7    8 ar
    14    7   38 1
    15    8    9 ar
    16    8   39 1
    17    9   10 ar
    18    9   40 1
    19   10   11 1
    20   11   12 1
    21   12   13 1
    22   12   41 1
    23   12   42 1
    24   13   14 1
    25   13   33 1
    26   13   43 1
    27   14   15 1
    28   14   44 1
    29   14   45 1
    30   15   16 1
    31   15   46 1
    32   15   58 1
    33   16   17 1
    34   16   47 1
    35   16   48 1
    36   17   18 1
    37   17   49 1
    38   17   50 1
    39   18   19 1
    40   18   51 1
    41   19   20 2
    42   19   21 2
    43   19   22 1
    44   22   27 ar
    45   22   23 ar
    46   23   24 ar
    47   23   52 1
    48   24   25 ar
    49   24   53 1
    50   25   26 ar
    51   25   32 1
    52   26   27 ar
    53   26   28 1
    54   27   54 1
    55   28   29 2
    56   28   30 2
    57   28   31 1
    58   31   55 1
    59   31   56 1
    60   33   57 1
@<TRIPOS>MOLECULE
CHEMBL43196__3
   57    59     0     0     0
SMALL
USER_CHARGES

@<TRIPOS>ATOM
      1 C1         -0.0164    1.3568    0.0095 C.ar      1 <0>        -0.1014
      2 C2          1.1685    2.0903    0.0021 C.ar      1 <0>        -0.1290
      3 C3          2.3786    1.4667   -0.0127 C.ar      1 <0>        -0.0827
      4 C4          2.4373    0.0638   -0.0208 C.ar      1 <0>        -0.0711
      5 C5          1.2329   -0.6827   -0.0133 C.ar      1 <0>        -0.0188
      6 C6          0.0021   -0.0041    0.0020 C.ar      1 <0>        -0.1181
      7 C7          1.2917   -2.0866   -0.0208 C.ar      1 <0>        -0.1454
      8 C8          2.5010   -2.7126   -0.0352 C.ar      1 <0>        -0.0756
      9 C9          3.6868   -1.9838   -0.0426 C.ar      1 <0>        -0.2260
     10 C10         3.6713   -0.6172   -0.0357 C.ar      1 <0>         0.1480
     11 O1          4.8369    0.0798   -0.0435 O.3       1 <0>        -0.2976
     12 C11         6.0470   -0.6800   -0.0585 C.3       1 <0>         0.0278
     13 C12         7.2459    0.2705   -0.0655 C.3       1 <0>         0.1113
     14 C13         8.5394   -0.5393    0.0442 C.3       1 <0>         0.0324
     15 N1          9.6823    0.3766    0.1580 N.3       1 <0>        -0.6822
     16 C14        10.9444   -0.3673    0.2655 C.3       1 <0>         0.0519
     17 C15        12.1090    0.6181    0.3820 C.3       1 <0>         0.1123
     18 N2         13.3677   -0.1238    0.4892 N.pl3     1 <0>        -1.1143
     19 S1         14.8104    0.6551    0.2562 S.o2      1 <0>         2.6986
     20 O2         15.8312   -0.3140    0.4511 O.2       1 <0>        -0.9435
     21 O3         14.6824    1.3947   -0.9504 O.2       1 <0>        -0.9438
     22 C16        14.9812    1.8345    1.5541 C.ar      1 <0>        -0.6996
     23 C17        14.4908    3.1170    1.3914 C.ar      1 <0>         0.0484
     24 C18        14.6249    4.0425    2.4088 C.ar      1 <0>        -0.1435
     25 C19        15.2497    3.6855    3.5907 C.ar      1 <0>         0.0972
     26 C20        15.7397    2.4021    3.7530 C.ar      1 <0>        -0.6937
     27 C21        15.6004    1.4756    2.7366 C.ar      1 <0>         0.0948
     28 S2         16.5355    1.9465    5.2576 S.o2      1 <0>         2.6983
     29 O4         15.6838    2.3720    6.3125 O.2       1 <0>        -0.9396
     30 O5         16.9446    0.5940    5.1073 O.2       1 <0>        -0.9515
     31 N3         17.9189    2.8494    5.3727 N.pl3     1 <0>        -1.2445
     32 Cl1        15.4190    4.8478    4.8690 Cl        1 <0>        -0.0153
     33 O6          7.2539    1.0183   -1.2832 O.3       1 <0>        -0.5479
     34 H1         -0.9633    1.8759    0.0259 H         1 <0>         0.1251
     35 H2          1.1262    3.1695    0.0079 H         1 <0>         0.1252
     36 H3          3.2887    2.0480   -0.0187 H         1 <0>         0.1326
     37 H4         -0.9241   -0.5596    0.0082 H         1 <0>         0.1301
     38 H5          0.3810   -2.6672   -0.0149 H         1 <0>         0.1287
     39 H6          2.5405   -3.7919   -0.0406 H         1 <0>         0.1250
     40 H7          4.6324   -2.5056   -0.0537 H         1 <0>         0.1257
     41 H8          6.0900   -1.3125    0.8281 H         1 <0>         0.0752
     42 H9          6.0731   -1.3042   -0.9517 H         1 <0>         0.0675
     43 H10         7.1725    0.9542    0.7803 H         1 <0>         0.1215
     44 H11         8.4953   -1.1767    0.9272 H         1 <0>         0.0882
     45 H12         8.6571   -1.1583   -0.8453 H         1 <0>         0.0409
     46 H13         9.7076    1.0214   -0.6176 H         1 <0>         0.3538
     47 H14        10.9170   -1.0036    1.1501 H         1 <0>         0.0838
     48 H15        11.0788   -0.9852   -0.6224 H         1 <0>         0.0441
     49 H16        12.1365    1.2544   -0.5026 H         1 <0>         0.0842
     50 H17        11.9747    1.2359    1.2699 H         1 <0>         0.0784
     51 H18        13.3560   -1.0713    0.6966 H         1 <0>         0.4234
     52 H19        14.0031    3.3955    0.4689 H         1 <0>         0.1624
     53 H20        14.2424    5.0444    2.2813 H         1 <0>         0.1594
     54 H21        15.9793    0.4724    2.8647 H         1 <0>         0.1725
     55 H22        18.1441    3.4830    4.6736 H         1 <0>         0.4169
     56 H23        18.5040    2.7447    6.1392 H         1 <0>         0.4261
     57 H24         7.3175    0.4730   -2.0792 H         1 <0>         0.3734
@<TRIPOS>BOND
     1    1    6 ar
     2    1    2 ar
     3    1   34 1
     4    2    3 ar
     5    2   35 1
     6    3    4 ar
     7    3   36 1
     8    4   10 ar
     9    4    5 ar
    10    5    6 ar
    11    5    7 ar
    12    6   37 1
    13    7    8 ar
    14    7   38 1
    15    8    9 ar
    16    8   39 1
    17    9   10 ar
    18    9   40 1
    19   10   11 1
    20   11   12 1
    21   12   13 1
    22   12   41 1
    23   12   42 1
    24   13   14 1
    25   13   33 1
    26   13   43 1
    27   14   15 1
    28   14   44 1
    29   14   45 1
    30   15   16 1
    31   15   46 1
    32   16   17 1
    33   16   47 1
    34   16   48 1
    35   17   18 1
    36   17   49 1
    37   17   50 1
    38   18   19 1
    39   18   51 1
    40   19   20 2
    41   19   21 2
    42   19   22 1
    43   22   27 ar
    44   22   23 ar
    45   23   24 ar
    46   23   52 1
    47   24   25 ar
    48   24   53 1
    49   25   26 ar
    50   25   32 1
    51   26   27 ar
    52   26   28 1
    53   27   54 1
    54   28   29 2
    55   28   30 2
    56   28   31 1
    57   31   55 1
    58   31   56 1
    59   33   57 1
@<TRIPOS>MOLECULE
CHEMBL513419
   76    79     0     0     0
SMALL
USER_CHARGES

@<TRIPOS>ATOM
      1 C1          0.2413    2.0186    0.0482 C.3       1 <0>        -0.6578
      2 S1          0.2512    0.2067    0.1332 S.o2      1 <0>         2.5576
      3 O1          1.1429   -0.2308    1.1494 O.2       1 <0>        -1.0049
      4 O2         -1.0774   -0.2935    0.0707 O.2       1 <0>        -1.0008
      5 N1          0.9538   -0.2821   -1.2845 N.2       1 <0>        -1.0453
      6 C2          1.1090   -1.5496   -1.5302 C.2       1 <0>         0.5168
      7 O3          0.6965   -2.4688   -0.6277 O.3       1 <0>        -0.7019
      8 C3          1.7364   -1.9861   -2.7963 C.ar      1 <0>        -0.0390
      9 C4          2.0084   -3.3387   -3.0111 C.ar      1 <0>        -0.0733
     10 C5          2.5921   -3.7444   -4.1902 C.ar      1 <0>        -0.1252
     11 C6          2.9122   -2.8044   -5.1700 C.ar      1 <0>        -0.0722
     12 C7          2.6413   -1.4532   -4.9559 C.ar      1 <0>        -0.1183
     13 C8          2.0518   -1.0467   -3.7795 C.ar      1 <0>        -0.0216
     14 C9          1.7535    0.4127   -3.5510 C.3       1 <0>        -0.0787
     15 C10         0.2653    0.6731   -3.7929 C.3       1 <0>        -0.0692
     16 C11        -0.0755    0.3655   -5.2524 C.3       1 <0>        -0.1145
     17 C12        -1.5637    0.6258   -5.4944 C.3       1 <0>        -0.1205
     18 C13        -1.8801    2.0925   -5.1950 C.3       1 <0>        -0.1144
     19 C14        -1.5392    2.4001   -3.7355 C.3       1 <0>        -0.1259
     20 C15        -0.0511    2.1398   -3.4935 C.3       1 <0>        -0.1144
     21 C16         3.5413   -3.2420   -6.4395 C.ar      1 <0>         0.0024
     22 C17         3.8676   -2.3046   -7.4182 C.ar      1 <0>        -0.1140
     23 C18         4.4529   -2.7177   -8.5977 C.ar      1 <0>        -0.1032
     24 C19         4.7158   -4.0591   -8.8098 C.ar      1 <0>        -0.1276
     25 C20         4.3937   -4.9939   -7.8423 C.ar      1 <0>        -0.1032
     26 C21         3.8138   -4.5917   -6.6564 C.ar      1 <0>        -0.1150
     27 C22         5.3551   -4.5039  -10.1000 C.3       1 <0>        -0.0948
     28 C23         6.8772   -4.4919   -9.9456 C.3       1 <0>        -0.0079
     29 N2          7.5004   -4.9255  -11.2032 N.4       1 <0>        -0.5056
     30 C24         8.9619   -4.9140  -11.0549 C.3       1 <0>        -0.0419
     31 C25         9.6109   -5.3656  -12.3648 C.3       1 <0>         0.1352
     32 H1          9.3217   -4.6863  -13.1667 H         1 <0>         0.1311
     33 C26        11.1102   -5.3538  -12.2127 C.ar      1 <0>        -0.1428
     34 C27        11.7589   -6.4492  -11.6741 C.ar      1 <0>        -0.1066
     35 C28        13.1341   -6.4385  -11.5346 C.ar      1 <0>        -0.1118
     36 C29        13.8607   -5.3324  -11.9341 C.ar      1 <0>        -0.0998
     37 C30        13.2121   -4.2373  -12.4736 C.ar      1 <0>        -0.1127
     38 C31        11.8373   -4.2498  -12.6170 C.ar      1 <0>        -0.1020
     39 O4          9.1746   -6.6891  -12.6811 O.3       1 <0>        -0.5488
     40 H2          1.2644    2.3838   -0.0416 H         1 <0>         0.1179
     41 H3         -0.3361    2.3385   -0.8192 H         1 <0>         0.1214
     42 H4         -0.2103    2.4224    0.9543 H         1 <0>         0.1072
     43 H5          1.7613   -4.0665   -2.2524 H         1 <0>         0.1363
     44 H6          2.8025   -4.7905   -4.3565 H         1 <0>         0.1200
     45 H7          2.8897   -0.7259   -5.7148 H         1 <0>         0.1201
     46 H8          2.0067    0.6790   -2.5248 H         1 <0>         0.1327
     47 H9          2.3446    1.0166   -4.2394 H         1 <0>         0.0417
     48 H10        -0.3266    0.0329   -3.1388 H         1 <0>         0.0889
     49 H11         0.5164    1.0057   -5.9065 H         1 <0>         0.0511
     50 H12         0.1499   -0.6794   -5.4657 H         1 <0>         0.0570
     51 H13        -1.8065    0.4066   -6.5341 H         1 <0>         0.0518
     52 H14        -2.1556   -0.0144   -4.8403 H         1 <0>         0.0616
     53 H15        -1.2882    2.7327   -5.8491 H         1 <0>         0.0559
     54 H16        -2.9403    2.2780   -5.3674 H         1 <0>         0.0543
     55 H17        -1.7646    3.4450   -3.5222 H         1 <0>         0.0558
     56 H18        -2.1311    1.7599   -3.0814 H         1 <0>         0.0647
     57 H19         0.1918    2.3589   -2.4538 H         1 <0>         0.0673
     58 H20         0.5408    2.7800   -4.1476 H         1 <0>         0.0536
     59 H21         3.6625   -1.2571   -7.2538 H         1 <0>         0.1322
     60 H22         4.7058   -1.9923   -9.3568 H         1 <0>         0.1217
     61 H23         4.6006   -6.0400   -8.0136 H         1 <0>         0.1217
     62 H24         3.5675   -5.3218   -5.8996 H         1 <0>         0.1323
     63 H25         5.0223   -5.5134  -10.3412 H         1 <0>         0.0931
     64 H26         5.0659   -3.8246  -10.9018 H         1 <0>         0.0931
     65 H27         7.2100   -3.4824   -9.7043 H         1 <0>         0.1337
     66 H28         7.1664   -5.1713   -9.1437 H         1 <0>         0.1330
     67 H29         7.1923   -5.8600  -11.4266 H         1 <0>         0.4309
     68 H30         9.2947   -3.9045  -10.8137 H         1 <0>         0.1443
     69 H31         9.2511   -5.5933  -10.2531 H         1 <0>         0.1363
     70 H32        11.1912   -7.3134  -11.3620 H         1 <0>         0.1225
     71 H33        13.6409   -7.2940  -11.1132 H         1 <0>         0.1313
     72 H34        14.9351   -5.3237  -11.8245 H         1 <0>         0.1312
     73 H35        13.7797   -3.3731  -12.7854 H         1 <0>         0.1317
     74 H36        11.3309   -3.3958  -13.0419 H         1 <0>         0.1275
     75 H37         9.3985   -7.3480  -12.0098 H         1 <0>         0.3882
     76 H38         7.2327   -4.2967  -11.9455 H         1 <0>         0.4283
@<TRIPOS>BOND
     1    1    2 1
     2    1   40 1
     3    1   41 1
     4    1   42 1
     5    2    3 2
     6    2    4 2
     7    2    5 1
     8    5    6 2
     9    6    7 1
    10    6    8 1
    11    8   13 ar
    12    8    9 ar
    13    9   10 ar
    14    9   43 1
    15   10   11 ar
    16   10   44 1
    17   11   12 ar
    18   11   21 1
    19   12   13 ar
    20   12   45 1
    21   13   14 1
    22   14   15 1
    23   14   46 1
    24   14   47 1
    25   15   20 1
    26   15   16 1
    27   15   48 1
    28   16   17 1
    29   16   49 1
    30   16   50 1
    31   17   18 1
    32   17   51 1
    33   17   52 1
    34   18   19 1
    35   18   53 1
    36   18   54 1
    37   19   20 1
    38   19   55 1
    39   19   56 1
    40   20   57 1
    41   20   58 1
    42   21   26 ar
    43   21   22 ar
    44   22   23 ar
    45   22   59 1
    46   23   24 ar
    47   23   60 1
    48   24   25 ar
    49   24   27 1
    50   25   26 ar
    51   25   61 1
    52   26   62 1
    53   27   28 1
    54   27   63 1
    55   27   64 1
    56   28   29 1
    57   28   65 1
    58   28   66 1
    59   29   30 1
    60   29   67 1
    61   29   76 1
    62   30   31 1
    63   30   68 1
    64   30   69 1
    65   31   32 1
    66   31   33 1
    67   31   39 1
    68   33   38 ar
    69   33   34 ar
    70   34   35 ar
    71   34   70 1
    72   35   36 ar
    73   35   71 1
    74   36   37 ar
    75   36   72 1
    76   37   38 ar
    77   37   73 1
    78   38   74 1
    79   39   75 1
@<TRIPOS>MOLECULE
CHEMBL1221683
   51    54     0     0     0
SMALL
USER_CHARGES

@<TRIPOS>ATOM
      1 C1         -0.1535    1.5679   -0.1197 C.ar      1 <0>        -0.0377
      2 C2          0.9972    2.3360   -0.1673 C.ar      1 <0>        -0.2400
      3 C3          2.2437    1.7513   -0.2377 C.ar      1 <0>         0.3004
      4 C4          2.3825    0.3492   -0.2627 C.ar      1 <0>        -0.0286
      5 C5          1.1975   -0.3962   -0.2126 C.ar      1 <0>        -0.0474
      6 C6         -0.0450    0.1885   -0.1430 C.ar      1 <0>        -0.2328
      7 C7         -1.2831   -0.6690   -0.0916 C.3       1 <0>         0.1629
      8 H1         -1.0740   -1.5755    0.4764 H         1 <0>         0.1143
      9 C8         -1.7031   -1.0441   -1.5143 C.3       1 <0>        -0.0486
     10 N1         -2.9100   -1.8800   -1.4642 N.4       1 <0>        -0.5044
     11 C9         -3.3132   -2.2402   -2.8301 C.3       1 <0>         0.0197
     12 H2         -2.4727   -2.6861   -3.3619 H         1 <0>         0.1414
     13 C10        -3.8086   -0.9912   -3.5801 C.3       1 <0>        -0.1418
     14 C11        -5.2767   -1.2635   -3.9680 C.3       1 <0>        -0.1288
     15 C12        -5.3841   -2.8086   -3.9873 C.3       1 <0>        -0.1162
     16 C13        -4.4966   -3.2289   -2.7885 C.3       1 <0>        -0.1000
     17 H3         -5.0463   -3.1267   -1.8528 H         1 <0>         0.0959
     18 C14        -4.0007   -4.6654   -2.9656 C.3       1 <0>        -0.0941
     19 C15        -5.1989   -5.6360   -3.0129 C.3       1 <0>        -0.1179
     20 C16        -4.6992   -6.8933   -2.2590 C.3       1 <0>        -0.1284
     21 C17        -3.8545   -6.2895   -1.1096 C.3       1 <0>        -0.1267
     22 C18        -3.1460   -5.0809   -1.7554 C.3       1 <0>        -0.1243
     23 O1         -2.3392    0.0566    0.5411 O.3       1 <0>        -0.5544
     24 S1          1.7734   -2.0761   -0.2627 S.3       1 <0>        -0.1198
     25 C19         3.5235   -1.7326   -0.3462 C.2       1 <0>         0.5378
     26 O2          4.4524   -2.5173   -0.4027 O.2       1 <0>        -0.4759
     27 N2          3.5565   -0.3856   -0.3309 N.am      1 <0>        -0.6196
     28 H4          4.4097    0.0744   -0.3679 H         1 <0>         0.4155
     29 O3          3.3526    2.5370   -0.2838 O.3       1 <0>        -0.6866
     30 H5         -1.1235    2.0391   -0.0607 H         1 <0>         0.1128
     31 H6          0.9170    3.4129   -0.1494 H         1 <0>         0.1174
     32 H7         -1.9122   -0.1376   -2.0823 H         1 <0>         0.1365
     33 H8         -0.8975   -1.5975   -1.9969 H         1 <0>         0.1401
     34 H9         -2.7164   -2.7191   -0.9384 H         1 <0>         0.4205
     35 H10        -3.7499   -0.1179   -2.9305 H         1 <0>         0.0860
     36 H11        -3.2091   -0.8315   -4.4763 H         1 <0>         0.1019
     37 H12        -5.9523   -0.8434   -3.2229 H         1 <0>         0.0770
     38 H13        -5.4929   -0.8537   -4.9546 H         1 <0>         0.0852
     39 H14        -6.4156   -3.1260   -3.8345 H         1 <0>         0.0860
     40 H15        -4.9889   -3.2117   -4.9197 H         1 <0>         0.0826
     41 H16        -3.4160   -4.7479   -3.8817 H         1 <0>         0.0869
     42 H17        -6.0605   -5.2035   -2.5043 H         1 <0>         0.0702
     43 H18        -5.4485   -5.8838   -4.0446 H         1 <0>         0.0718
     44 H19        -5.5383   -7.4650   -1.8626 H         1 <0>         0.0716
     45 H20        -4.0808   -7.5129   -2.9085 H         1 <0>         0.0709
     46 H21        -4.4990   -5.9626   -0.2937 H         1 <0>         0.0686
     47 H22        -3.1230   -7.0143   -0.7523 H         1 <0>         0.0727
     48 H23        -2.1466   -5.3660   -2.0844 H         1 <0>         0.0785
     49 H24        -3.0844   -4.2592   -1.0420 H         1 <0>         0.0406
     50 H25        -2.5788    0.8769    0.0887 H         1 <0>         0.3831
     51 H26        -3.6557   -1.3677   -1.0175 H         1 <0>         0.4253
@<TRIPOS>BOND
     1    1    6 ar
     2    1    2 ar
     3    1   30 1
     4    2    3 ar
     5    2   31 1
     6    3    4 ar
     7    3   29 1
     8    4   27 1
     9    4    5 ar
    10    5    6 ar
    11    5   24 1
    12    6    7 1
    13    7    8 1
    14    7    9 1
    15    7   23 1
    16    9   10 1
    17    9   32 1
    18    9   33 1
    19   10   11 1
    20   10   34 1
    21   10   51 1
    22   11   12 1
    23   11   16 1
    24   11   13 1
    25   13   14 1
    26   13   35 1
    27   13   36 1
    28   14   15 1
    29   14   37 1
    30   14   38 1
    31   15   16 1
    32   15   39 1
    33   15   40 1
    34   16   17 1
    35   16   18 1
    36   18   22 1
    37   18   19 1
    38   18   41 1
    39   19   20 1
    40   19   42 1
    41   19   43 1
    42   20   21 1
    43   20   44 1
    44   20   45 1
    45   21   22 1
    46   21   46 1
    47   21   47 1
    48   22   48 1
    49   22   49 1
    50   23   50 1
    51   24   25 1
    52   25   26 2
    53   25   27 am
    54   27   28 1
@<TRIPOS>MOLECULE
CHEMBL136936
   54    57     0     0     0
SMALL
USER_CHARGES

@<TRIPOS>ATOM
      1 C1         -0.0173    1.4248    0.0099 C.3       1 <0>         0.0229
      2 O1          0.0021   -0.0041    0.0020 O.3       1 <0>        -0.3112
      3 C2         -1.2013   -0.6380    0.0101 C.ar      1 <0>         0.1288
      4 C3         -2.3740    0.0989    0.0195 C.ar      1 <0>        -0.2022
      5 C4         -3.5967   -0.5469    0.0283 C.ar      1 <0>        -0.0670
      6 C5         -3.6532   -1.9283    0.0271 C.ar      1 <0>        -0.1489
      7 C6         -2.4875   -2.6710    0.0173 C.ar      1 <0>        -0.0820
      8 C7         -1.2572   -2.0300    0.0032 C.ar      1 <0>         0.1089
      9 N1         -0.0754   -2.7797   -0.0127 N.pl3     1 <0>        -0.6632
     10 C8          0.5725   -3.1969    1.2404 C.3       1 <0>         0.1219
     11 C9          0.8530   -4.7014    1.1647 C.3       1 <0>        -0.0222
     12 N2          1.6309   -4.9929   -0.0461 N.4       1 <0>        -0.3802
     13 C10         0.8351   -4.6789   -1.2395 C.3       1 <0>        -0.0269
     14 C11         0.5506   -3.1781   -1.2829 C.3       1 <0>         0.1224
     15 C12         1.9935   -6.4164   -0.0621 C.3       1 <0>        -0.0070
     16 C13         2.9078   -6.6964   -1.2565 C.3       1 <0>        -0.1788
     17 C14         3.2853   -8.1790   -1.2732 C.3       1 <0>         0.1734
     18 C15         4.2820   -8.4311   -2.3751 C.2       1 <0>        -0.1518
     19 C16         3.8682   -8.8486   -3.5801 C.2       1 <0>        -0.1440
     20 S1          5.3806   -8.9979   -4.5116 S.3       1 <0>         0.0627
     21 C17         6.5283   -8.4950   -3.2557 C.ar      1 <0>        -0.1145
     22 C18         5.7032   -8.2181   -2.1438 C.ar      1 <0>        -0.0884
     23 C19         6.3531   -7.7810   -0.9656 C.ar      1 <0>        -0.0856
     24 C20         7.7047   -7.6369   -0.9301 C.ar      1 <0>        -0.1145
     25 C21         8.4933   -7.9113   -2.0391 C.ar      1 <0>        -0.0888
     26 C22         7.8978   -8.3497   -3.2056 C.ar      1 <0>        -0.0717
     27 O2          2.1146   -8.9661   -1.5006 O.3       1 <0>        -0.5469
     28 H1          1.0053    1.8021    0.0021 H         1 <0>         0.1035
     29 H2         -0.5445    1.7859   -0.8732 H         1 <0>         0.0588
     30 H3         -0.5275    1.7763    0.9067 H         1 <0>         0.0589
     31 H4         -2.3335    1.1781    0.0204 H         1 <0>         0.1340
     32 H5         -4.5101    0.0293    0.0363 H         1 <0>         0.1320
     33 H6         -4.6104   -2.4284    0.0343 H         1 <0>         0.1307
     34 H7         -2.5344   -3.7500    0.0168 H         1 <0>         0.1267
     35 H8          1.5101   -2.6554    1.3659 H         1 <0>         0.0775
     36 H9         -0.0891   -2.9896    2.0815 H         1 <0>         0.1142
     37 H10         1.4191   -5.0102    2.0435 H         1 <0>         0.1360
     38 H11        -0.0906   -5.2458    1.1302 H         1 <0>         0.1304
     39 H12         1.3880   -4.9711   -2.1323 H         1 <0>         0.1348
     40 H13        -0.1080   -5.2240   -1.2012 H         1 <0>         0.1307
     41 H14        -0.1254   -2.9583   -2.1092 H         1 <0>         0.1135
     42 H15         1.4860   -2.6346   -1.4165 H         1 <0>         0.0766
     43 H16         2.5145   -6.6690    0.8613 H         1 <0>         0.1321
     44 H17         1.0901   -7.0204   -0.1466 H         1 <0>         0.1364
     45 H18         2.3868   -6.4437   -2.1800 H         1 <0>         0.0933
     46 H19         3.8111   -6.0923   -1.1721 H         1 <0>         0.0996
     47 H20         3.7265   -8.4524   -0.3147 H         1 <0>         0.1181
     48 H21         2.8586   -9.0476   -3.9081 H         1 <0>         0.1896
     49 H22         5.7691   -7.5590   -0.0846 H         1 <0>         0.1202
     50 H23         8.1757   -7.3010   -0.0181 H         1 <0>         0.1312
     51 H24         9.5652   -7.7893   -1.9881 H         1 <0>         0.1400
     52 H25         8.5000   -8.5659   -4.0757 H         1 <0>         0.1366
     53 H26         1.6690   -8.7757   -2.3375 H         1 <0>         0.3787
     54 H27         2.4712   -4.4343   -0.0471 H         1 <0>         0.4212
@<TRIPOS>BOND
     1    1    2 1
     2    1   28 1
     3    1   29 1
     4    1   30 1
     5    2    3 1
     6    3    8 ar
     7    3    4 ar
     8    4    5 ar
     9    4   31 1
    10    5    6 ar
    11    5   32 1
    12    6    7 ar
    13    6   33 1
    14    7    8 ar
    15    7   34 1
    16    8    9 1
    17    9   14 1
    18    9   10 1
    19   10   11 1
    20   10   35 1
    21   10   36 1
    22   11   12 1
    23   11   37 1
    24   11   38 1
    25   12   13 1
    26   12   15 1
    27   12   54 1
    28   13   14 1
    29   13   39 1
    30   13   40 1
    31   14   41 1
    32   14   42 1
    33   15   16 1
    34   15   43 1
    35   15   44 1
    36   16   17 1
    37   16   45 1
    38   16   46 1
    39   17   18 1
    40   17   27 1
    41   17   47 1
    42   18   22 1
    43   18   19 2
    44   19   20 1
    45   19   48 1
    46   20   21 1
    47   21   26 ar
    48   21   22 ar
    49   22   23 ar
    50   23   24 ar
    51   23   49 1
    52   24   25 ar
    53   24   50 1
    54   25   26 ar
    55   25   51 1
    56   26   52 1
    57   27   53 1
@<TRIPOS>MOLECULE
CHEMBL136936__1
   53    56     0     0     0
SMALL
USER_CHARGES

@<TRIPOS>ATOM
      1 C1         -0.0173    1.4248    0.0099 C.3       1 <0>         0.0252
      2 O1          0.0021   -0.0041    0.0020 O.3       1 <0>        -0.3040
      3 C2          0.6263   -0.6189    1.0423 C.ar      1 <0>         0.1195
      4 C3          1.2020    0.1362    2.0507 C.ar      1 <0>        -0.2066
      5 C4          1.8368   -0.4902    3.1075 C.ar      1 <0>        -0.0836
      6 C5          1.8987   -1.8703    3.1618 C.ar      1 <0>        -0.1521
      7 C6          1.3263   -2.6311    2.1598 C.ar      1 <0>        -0.0880
      8 C7          0.6832   -2.0097    1.0992 C.ar      1 <0>         0.1389
      9 N1          0.0978   -2.7779    0.0862 N.pl3     1 <0>        -0.6680
     10 C8          0.8705   -3.1791   -1.0992 C.3       1 <0>         0.1535
     11 C9          0.7192   -4.6921   -1.2897 C.3       1 <0>         0.0416
     12 N2         -0.7081   -5.0367   -1.3328 N.3       1 <0>        -0.5346
     13 C10        -1.3720   -4.7173   -0.0619 C.3       1 <0>         0.0388
     14 C11        -1.3047   -3.2105    0.1818 C.3       1 <0>         0.1535
     15 C12        -0.8980   -6.4501   -1.6852 C.3       1 <0>         0.0596
     16 C13        -2.3795   -6.7116   -1.9641 C.3       1 <0>        -0.1400
     17 C14        -2.5773   -8.1837   -2.3312 C.3       1 <0>         0.1622
     18 C15        -4.0135   -8.4147   -2.7247 C.2       1 <0>        -0.1332
     19 C16        -4.9022   -8.8489   -1.8196 C.2       1 <0>        -0.1505
     20 S1         -6.4203   -8.9625   -2.7471 S.3       1 <0>         0.0338
     21 C17        -5.8188   -8.4231   -4.3266 C.ar      1 <0>        -0.1124
     22 C18        -4.4514   -8.1628   -4.0898 C.ar      1 <0>        -0.0823
     23 C19        -3.6936   -7.7028   -5.1924 C.ar      1 <0>        -0.0753
     24 C20        -4.2748   -7.5227   -6.4084 C.ar      1 <0>        -0.1198
     25 C21        -5.6232   -7.7814   -6.6139 C.ar      1 <0>        -0.0934
     26 C22        -6.3952   -8.2412   -5.5652 C.ar      1 <0>        -0.0780
     27 O2         -2.2541   -9.0028   -1.2057 O.3       1 <0>        -0.5512
     28 H1          1.0053    1.8021    0.0021 H         1 <0>         0.0538
     29 H2         -0.5445    1.7859   -0.8732 H         1 <0>         0.0991
     30 H3         -0.5275    1.7763    0.9067 H         1 <0>         0.0536
     31 H4          1.1555    1.2145    2.0114 H         1 <0>         0.1276
     32 H5          2.2858    0.1003    3.8925 H         1 <0>         0.1245
     33 H6          2.3959   -2.3551    3.9890 H         1 <0>         0.1239
     34 H7          1.3765   -3.7090    2.2044 H         1 <0>         0.1251
     35 H8          0.4889   -2.6595   -1.9781 H         1 <0>         0.0577
     36 H9          1.9218   -2.9319   -0.9519 H         1 <0>         0.0691
     37 H10         1.1938   -4.9902   -2.2246 H         1 <0>         0.0794
     38 H11         1.1942   -5.2127   -0.4581 H         1 <0>         0.0348
     39 H12        -2.4141   -5.0337   -0.1064 H         1 <0>         0.0801
     40 H13        -0.8680   -5.2375    0.7526 H         1 <0>         0.0341
     41 H14        -1.6908   -2.9840    1.1756 H         1 <0>         0.0682
     42 H15        -1.8994   -2.6939   -0.5716 H         1 <0>         0.0567
     43 H16        -0.3139   -6.6843   -2.5752 H         1 <0>         0.0742
     44 H17        -0.5676   -7.0784   -0.8581 H         1 <0>         0.0411
     45 H18        -2.9636   -6.4774   -1.0741 H         1 <0>         0.0687
     46 H19        -2.7099   -6.0833   -2.7912 H         1 <0>         0.0835
     47 H20        -1.9259   -8.4405   -3.1665 H         1 <0>         0.1089
     48 H21        -4.7375   -9.0763   -0.7768 H         1 <0>         0.1875
     49 H22        -2.6418   -7.4920   -5.0668 H         1 <0>         0.1253
     50 H23        -3.6737   -7.1698   -7.2333 H         1 <0>         0.1291
     51 H24        -6.0636   -7.6307   -7.5884 H         1 <0>         0.1356
     52 H25        -7.4455   -8.4456   -5.7117 H         1 <0>         0.1322
     53 H26        -2.7958   -8.8284   -0.4239 H         1 <0>         0.3725
@<TRIPOS>BOND
     1    1    2 1
     2    1   28 1
     3    1   29 1
     4    1   30 1
     5    2    3 1
     6    3    8 ar
     7    3    4 ar
     8    4    5 ar
     9    4   31 1
    10    5    6 ar
    11    5   32 1
    12    6    7 ar
    13    6   33 1
    14    7    8 ar
    15    7   34 1
    16    8    9 1
    17    9   14 1
    18    9   10 1
    19   10   11 1
    20   10   35 1
    21   10   36 1
    22   11   12 1
    23   11   37 1
    24   11   38 1
    25   12   13 1
    26   12   15 1
    27   13   14 1
    28   13   39 1
    29   13   40 1
    30   14   41 1
    31   14   42 1
    32   15   16 1
    33   15   43 1
    34   15   44 1
    35   16   17 1
    36   16   45 1
    37   16   46 1
    38   17   18 1
    39   17   27 1
    40   17   47 1
    41   18   22 1
    42   18   19 2
    43   19   20 1
    44   19   48 1
    45   20   21 1
    46   21   26 ar
    47   21   22 ar
    48   22   23 ar
    49   23   24 ar
    50   23   49 1
    51   24   25 ar
    52   24   50 1
    53   25   26 ar
    54   25   51 1
    55   26   52 1
    56   27   53 1
@<TRIPOS>MOLECULE
CHEMBL136936__2
   54    57     0     0     0
SMALL
USER_CHARGES

@<TRIPOS>ATOM
      1 C1         -0.0173    1.4248    0.0099 C.3       1 <0>         0.0228
      2 O1          0.0021   -0.0041    0.0020 O.3       1 <0>        -0.3112
      3 C2         -1.2013   -0.6380    0.0101 C.ar      1 <0>         0.1289
      4 C3         -2.3740    0.0989    0.0195 C.ar      1 <0>        -0.2022
      5 C4         -3.5967   -0.5469    0.0283 C.ar      1 <0>        -0.0670
      6 C5         -3.6532   -1.9283    0.0271 C.ar      1 <0>        -0.1489
      7 C6         -2.4875   -2.6710    0.0173 C.ar      1 <0>        -0.0821
      8 C7         -1.2572   -2.0300    0.0032 C.ar      1 <0>         0.1091
      9 N1         -0.0754   -2.7797   -0.0127 N.pl3     1 <0>        -0.6633
     10 C8          0.5725   -3.1969    1.2404 C.3       1 <0>         0.1220
     11 C9          0.8530   -4.7014    1.1647 C.3       1 <0>        -0.0221
     12 N2          1.6309   -4.9929   -0.0461 N.4       1 <0>        -0.3800
     13 C10         0.8351   -4.6789   -1.2395 C.3       1 <0>        -0.0281
     14 C11         0.5506   -3.1781   -1.2829 C.3       1 <0>         0.1227
     15 C12         1.9935   -6.4164   -0.0621 C.3       1 <0>        -0.0067
     16 C13         2.9078   -6.6964   -1.2565 C.3       1 <0>        -0.1789
     17 C14         3.2853   -8.1790   -1.2732 C.3       1 <0>         0.1738
     18 C15         4.0839   -8.4800   -2.5153 C.2       1 <0>        -0.1531
     19 C16         5.4240   -8.4756   -2.4764 C.2       1 <0>        -0.1426
     20 S1          5.8909   -8.8794   -4.1487 S.3       1 <0>         0.0630
     21 C17         4.2716   -9.0431   -4.8548 C.ar      1 <0>        -0.1147
     22 C18         3.4080   -8.7844   -3.7680 C.ar      1 <0>        -0.0879
     23 C19         2.0197   -8.8484   -4.0325 C.ar      1 <0>        -0.0862
     24 C20         1.5626   -9.1508   -5.2770 C.ar      1 <0>        -0.1145
     25 C21         2.4331   -9.4060   -6.3278 C.ar      1 <0>        -0.0891
     26 C22         3.7958   -9.3438   -6.1127 C.ar      1 <0>        -0.0713
     27 O2          4.0688   -8.4840   -0.1177 O.3       1 <0>        -0.5474
     28 H1          1.0053    1.8021    0.0021 H         1 <0>         0.1035
     29 H2         -0.5445    1.7859   -0.8732 H         1 <0>         0.0588
     30 H3         -0.5275    1.7763    0.9067 H         1 <0>         0.0589
     31 H4         -2.3335    1.1781    0.0204 H         1 <0>         0.1341
     32 H5         -4.5101    0.0293    0.0363 H         1 <0>         0.1319
     33 H6         -4.6104   -2.4284    0.0343 H         1 <0>         0.1306
     34 H7         -2.5344   -3.7500    0.0168 H         1 <0>         0.1265
     35 H8          1.5101   -2.6554    1.3659 H         1 <0>         0.0775
     36 H9         -0.0891   -2.9896    2.0815 H         1 <0>         0.1142
     37 H10         1.4191   -5.0102    2.0435 H         1 <0>         0.1365
     38 H11        -0.0906   -5.2458    1.1302 H         1 <0>         0.1299
     39 H12         1.3880   -4.9711   -2.1323 H         1 <0>         0.1355
     40 H13        -0.1080   -5.2240   -1.2012 H         1 <0>         0.1304
     41 H14        -0.1254   -2.9583   -2.1092 H         1 <0>         0.1135
     42 H15         1.4860   -2.6346   -1.4165 H         1 <0>         0.0766
     43 H16         2.5145   -6.6690    0.8613 H         1 <0>         0.1384
     44 H17         1.0901   -7.0204   -0.1466 H         1 <0>         0.1298
     45 H18         2.3868   -6.4437   -2.1800 H         1 <0>         0.0994
     46 H19         3.8111   -6.0923   -1.1721 H         1 <0>         0.0935
     47 H20         2.3792   -8.7848   -1.2681 H         1 <0>         0.1176
     48 H21         6.0676   -8.2747   -1.6327 H         1 <0>         0.1901
     49 H22         1.3151   -8.6553   -3.2372 H         1 <0>         0.1196
     50 H23         0.4977   -9.1939   -5.4518 H         1 <0>         0.1309
     51 H24         2.0474   -9.6445   -7.3080 H         1 <0>         0.1399
     52 H25         4.4837   -9.5408   -6.9217 H         1 <0>         0.1366
     53 H26         4.8921   -7.9806   -0.0566 H         1 <0>         0.3794
     54 H27         2.4712   -4.4343   -0.0471 H         1 <0>         0.4215
@<TRIPOS>BOND
     1    1    2 1
     2    1   28 1
     3    1   29 1
     4    1   30 1
     5    2    3 1
     6    3    8 ar
     7    3    4 ar
     8    4    5 ar
     9    4   31 1
    10    5    6 ar
    11    5   32 1
    12    6    7 ar
    13    6   33 1
    14    7    8 ar
    15    7   34 1
    16    8    9 1
    17    9   14 1
    18    9   10 1
    19   10   11 1
    20   10   35 1
    21   10   36 1
    22   11   12 1
    23   11   37 1
    24   11   38 1
    25   12   13 1
    26   12   15 1
    27   12   54 1
    28   13   14 1
    29   13   39 1
    30   13   40 1
    31   14   41 1
    32   14   42 1
    33   15   16 1
    34   15   43 1
    35   15   44 1
    36   16   17 1
    37   16   45 1
    38   16   46 1
    39   17   18 1
    40   17   27 1
    41   17   47 1
    42   18   22 1
    43   18   19 2
    44   19   20 1
    45   19   48 1
    46   20   21 1
    47   21   26 ar
    48   21   22 ar
    49   22   23 ar
    50   23   24 ar
    51   23   49 1
    52   24   25 ar
    53   24   50 1
    54   25   26 ar
    55   25   51 1
    56   26   52 1
    57   27   53 1
@<TRIPOS>MOLECULE
CHEMBL136936__3
   53    56     0     0     0
SMALL
USER_CHARGES

@<TRIPOS>ATOM
      1 C1         -0.0173    1.4248    0.0099 C.3       1 <0>         0.0251
      2 O1          0.0021   -0.0041    0.0020 O.3       1 <0>        -0.3040
      3 C2          0.6263   -0.6189    1.0423 C.ar      1 <0>         0.1196
      4 C3          1.2020    0.1362    2.0507 C.ar      1 <0>        -0.2065
      5 C4          1.8368   -0.4902    3.1075 C.ar      1 <0>        -0.0836
      6 C5          1.8987   -1.8703    3.1618 C.ar      1 <0>        -0.1521
      7 C6          1.3263   -2.6311    2.1598 C.ar      1 <0>        -0.0881
      8 C7          0.6832   -2.0097    1.0992 C.ar      1 <0>         0.1390
      9 N1          0.0978   -2.7779    0.0862 N.pl3     1 <0>        -0.6681
     10 C8          0.8705   -3.1791   -1.0992 C.3       1 <0>         0.1535
     11 C9          0.7192   -4.6921   -1.2897 C.3       1 <0>         0.0418
     12 N2         -0.7081   -5.0367   -1.3328 N.3       1 <0>        -0.5342
     13 C10        -1.3720   -4.7173   -0.0619 C.3       1 <0>         0.0379
     14 C11        -1.3047   -3.2105    0.1818 C.3       1 <0>         0.1537
     15 C12        -0.8980   -6.4501   -1.6852 C.3       1 <0>         0.0601
     16 C13        -2.3795   -6.7116   -1.9641 C.3       1 <0>        -0.1403
     17 C14        -2.5773   -8.1837   -2.3312 C.3       1 <0>         0.1633
     18 C15        -4.0488   -8.4695   -2.4858 C.2       1 <0>        -0.1355
     19 C16        -4.6229   -8.4293   -3.6967 C.2       1 <0>        -0.1473
     20 S1         -6.3279   -8.8288   -3.3633 S.3       1 <0>         0.0350
     21 C17        -6.2225   -9.0389   -1.6048 C.ar      1 <0>        -0.1129
     22 C18        -4.8601   -8.7979   -1.3228 C.ar      1 <0>        -0.0817
     23 C19        -4.4657   -8.9001    0.0320 C.ar      1 <0>        -0.0774
     24 C20        -5.3690   -9.2207    0.9965 C.ar      1 <0>        -0.1197
     25 C21        -6.7025   -9.4578    0.6921 C.ar      1 <0>        -0.0940
     26 C22        -7.1294   -9.3583   -0.6175 C.ar      1 <0>        -0.0769
     27 O2         -1.9061   -8.4621   -3.5616 O.3       1 <0>        -0.5509
     28 H1          1.0053    1.8021    0.0021 H         1 <0>         0.0538
     29 H2         -0.5445    1.7859   -0.8732 H         1 <0>         0.0991
     30 H3         -0.5275    1.7763    0.9067 H         1 <0>         0.0536
     31 H4          1.1555    1.2145    2.0114 H         1 <0>         0.1276
     32 H5          2.2858    0.1003    3.8925 H         1 <0>         0.1245
     33 H6          2.3959   -2.3551    3.9890 H         1 <0>         0.1238
     34 H7          1.3765   -3.7090    2.2044 H         1 <0>         0.1250
     35 H8          0.4889   -2.6595   -1.9781 H         1 <0>         0.0578
     36 H9          1.9218   -2.9319   -0.9519 H         1 <0>         0.0692
     37 H10         1.1938   -4.9902   -2.2246 H         1 <0>         0.0801
     38 H11         1.1942   -5.2127   -0.4581 H         1 <0>         0.0343
     39 H12        -2.4141   -5.0337   -0.1064 H         1 <0>         0.0807
     40 H13        -0.8680   -5.2375    0.7526 H         1 <0>         0.0336
     41 H14        -1.6908   -2.9840    1.1756 H         1 <0>         0.0682
     42 H15        -1.8994   -2.6939   -0.5716 H         1 <0>         0.0568
     43 H16        -0.3139   -6.6843   -2.5752 H         1 <0>         0.0824
     44 H17        -0.5676   -7.0784   -0.8581 H         1 <0>         0.0319
     45 H18        -2.9636   -6.4774   -1.0741 H         1 <0>         0.0743
     46 H19        -2.7099   -6.0833   -2.7912 H         1 <0>         0.0780
     47 H20        -2.1658   -8.8133   -1.5423 H         1 <0>         0.1063
     48 H21        -4.1621   -8.2071   -4.6479 H         1 <0>         0.1889
     49 H22        -3.4356   -8.7219    0.3032 H         1 <0>         0.1231
     50 H23        -5.0413   -9.2929    2.0231 H         1 <0>         0.1285
     51 H24        -7.4023   -9.7113    1.4746 H         1 <0>         0.1356
     52 H25        -8.1640   -9.5410   -0.8677 H         1 <0>         0.1325
     53 H26        -2.2218   -7.9366   -4.3095 H         1 <0>         0.3745
@<TRIPOS>BOND
     1    1    2 1
     2    1   28 1
     3    1   29 1
     4    1   30 1
     5    2    3 1
     6    3    8 ar
     7    3    4 ar
     8    4    5 ar
     9    4   31 1
    10    5    6 ar
    11    5   32 1
    12    6    7 ar
    13    6   33 1
    14    7    8 ar
    15    7   34 1
    16    8    9 1
    17    9   14 1
    18    9   10 1
    19   10   11 1
    20   10   35 1
    21   10   36 1
    22   11   12 1
    23   11   37 1
    24   11   38 1
    25   12   13 1
    26   12   15 1
    27   13   14 1
    28   13   39 1
    29   13   40 1
    30   14   41 1
    31   14   42 1
    32   15   16 1
    33   15   43 1
    34   15   44 1
    35   16   17 1
    36   16   45 1
    37   16   46 1
    38   17   18 1
    39   17   27 1
    40   17   47 1
    41   18   22 1
    42   18   19 2
    43   19   20 1
    44   19   48 1
    45   20   21 1
    46   21   26 ar
    47   21   22 ar
    48   22   23 ar
    49   23   24 ar
    50   23   49 1
    51   24   25 ar
    52   24   50 1
    53   25   26 ar
    54   25   51 1
    55   26   52 1
    56   27   53 1
@<TRIPOS>MOLECULE
CHEMBL418600
   76    78     0     0     0
SMALL
USER_CHARGES

@<TRIPOS>ATOM
      1 C1          6.4525    2.4833    3.7642 C.3       1 <0>        -0.1518
      2 C2          5.1929    2.0764    2.9969 C.3       1 <0>        -0.1209
      3 C3          4.8754    0.6069    3.2805 C.3       1 <0>        -0.1402
      4 C4          3.6158    0.2000    2.5133 C.3       1 <0>         0.1154
      5 N1          3.3117   -1.2072    2.7848 N.am      1 <0>        -0.5910
      6 C5          2.4827   -1.5498    3.8617 C.ar      1 <0>         0.1219
      7 C6          2.9919   -2.2868    4.9226 C.ar      1 <0>        -0.0619
      8 C7          2.1754   -2.6244    5.9835 C.ar      1 <0>        -0.1762
      9 C8          0.8446   -2.2268    5.9895 C.ar      1 <0>         0.1938
     10 C9          0.3355   -1.4896    4.9282 C.ar      1 <0>        -0.1808
     11 C10         1.1538   -1.1473    3.8701 C.ar      1 <0>        -0.0833
     12 N2          0.0170   -2.5691    7.0641 N.pl3     1 <0>        -0.6378
     13 C11        -1.4197   -2.2638    7.0294 C.3       1 <0>         0.1306
     14 C12        -2.2040   -3.5502    7.3065 C.3       1 <0>        -0.1592
     15 C13        -1.7232   -4.1622    8.6242 C.3       1 <0>         0.0297
     16 C14        -0.2385   -4.5163    8.5124 C.3       1 <0>        -0.1653
     17 C15         0.5670   -3.2463    8.2464 C.3       1 <0>         0.1284
     18 N3         -2.4961   -5.3783    8.9099 N.4       1 <0>        -0.5033
     19 C16        -2.1188   -5.8995   10.2305 C.3       1 <0>        -0.0448
     20 C17        -2.9239   -7.1661   10.5279 C.3       1 <0>         0.1384
     21 H1         -2.7133   -7.9176    9.7670 H         1 <0>         0.1250
     22 C18        -2.5368   -7.7007   11.8827 C.ar      1 <0>        -0.0962
     23 C19        -3.1509   -7.2087   13.0194 C.ar      1 <0>        -0.2035
     24 C20        -2.8002   -7.6957   14.2652 C.ar      1 <0>        -0.1039
     25 C21        -1.8314   -8.6791   14.3771 C.ar      1 <0>         0.0502
     26 C22        -1.2120   -9.1755   13.2322 C.ar      1 <0>         0.2705
     27 C23        -1.5727   -8.6859   11.9853 C.ar      1 <0>        -0.2343
     28 N4         -0.2320  -10.1690   13.3393 N.2       1 <0>        -1.0764
     29 S1          0.5348  -10.7255   11.9811 S.o2      1 <0>         2.5262
     30 O1         -0.4833  -11.3710   11.2287 O.2       1 <0>        -1.0296
     31 O2          1.2139   -9.5922   11.4580 O.2       1 <0>        -1.0315
     32 C24         1.7317  -11.9458   12.5884 C.3       1 <0>        -0.6346
     33 O3         -1.4851   -9.1588   15.6019 O.3       1 <0>        -0.4820
     34 O4         -4.3190   -6.8569   10.5187 O.3       1 <0>        -0.5535
     35 C25         3.8292   -2.1722    1.9992 C.2       1 <0>         0.5130
     36 O5          3.5139   -3.3304    2.1737 O.2       1 <0>        -0.4684
     37 C26         4.7997   -1.8124    0.9038 C.3       1 <0>        -0.2040
     38 C27         5.2249   -3.0631    0.1785 C.2       1 <0>         0.4927
     39 O6          4.7810   -4.1462    0.5194 O.co2     1 <0>        -0.6558
     40 O7          6.0127   -2.9918   -0.7492 O.co2     1 <0>        -0.7049
     41 H2          7.2893    1.8625    3.4442 H         1 <0>         0.0559
     42 H3          6.6787    3.5303    3.5621 H         1 <0>         0.0522
     43 H4          6.2869    2.3471    4.8329 H         1 <0>         0.0513
     44 H5          4.3561    2.6973    3.3169 H         1 <0>         0.0596
     45 H6          5.3586    2.2126    1.9282 H         1 <0>         0.0652
     46 H7          5.7122   -0.0140    2.9606 H         1 <0>         0.0697
     47 H8          4.7097    0.4706    4.3492 H         1 <0>         0.0631
     48 H9          2.7790    0.8208    2.8333 H         1 <0>         0.0720
     49 H10         3.7814    0.3362    1.4446 H         1 <0>         0.0826
     50 H11         4.0266   -2.5963    4.9178 H         1 <0>         0.1237
     51 H12         2.5713   -3.1979    6.8085 H         1 <0>         0.1236
     52 H13        -0.6993   -1.1806    4.9325 H         1 <0>         0.1213
     53 H14         0.7592   -0.5703    3.0469 H         1 <0>         0.1230
     54 H15        -1.6541   -1.5214    7.7923 H         1 <0>         0.0692
     55 H16        -1.6875   -1.8772    6.0460 H         1 <0>         0.1007
     56 H17        -3.2669   -3.3198    7.3789 H         1 <0>         0.0951
     57 H18        -2.0393   -4.2587    6.4948 H         1 <0>         0.0927
     58 H19        -1.8654   -3.4438    9.4315 H         1 <0>         0.1376
     59 H20         0.0976   -4.9735    9.4431 H         1 <0>         0.1018
     60 H21        -0.0923   -5.2157    7.6893 H         1 <0>         0.0945
     61 H22         1.6096   -3.5078    8.0657 H         1 <0>         0.1034
     62 H23         0.4983   -2.5858    9.1107 H         1 <0>         0.0707
     63 H24        -3.4812   -5.1600    8.9034 H         1 <0>         0.4270
     64 H25        -1.0547   -6.1353   10.2375 H         1 <0>         0.1468
     65 H26        -2.3294   -5.1480   10.9914 H         1 <0>         0.1364
     66 H27        -3.9064   -6.4415   12.9342 H         1 <0>         0.1034
     67 H28        -3.2816   -7.3089   15.1512 H         1 <0>         0.1158
     68 H29        -1.0978   -9.0717   11.0954 H         1 <0>         0.1085
     69 H30         1.2037  -12.7446   13.1091 H         1 <0>         0.1177
     70 H31         2.2835  -12.3638   11.7464 H         1 <0>         0.1058
     71 H32         2.4271  -11.4624   13.2745 H         1 <0>         0.1184
     72 H33        -2.0570   -9.8699   15.9219 H         1 <0>         0.3698
     73 H34        -4.5791   -6.1933   11.1723 H         1 <0>         0.3826
     74 H35         4.3190   -1.1309    0.2019 H         1 <0>         0.0848
     75 H36         5.6748   -1.3289    1.3381 H         1 <0>         0.0866
     76 H37        -2.3012   -6.0740    8.2055 H         1 <0>         0.4269
@<TRIPOS>BOND
     1    1    2 1
     2    1   41 1
     3    1   42 1
     4    1   43 1
     5    2    3 1
     6    2   44 1
     7    2   45 1
     8    3    4 1
     9    3   46 1
    10    3   47 1
    11    4    5 1
    12    4   48 1
    13    4   49 1
    14    5    6 1
    15    5   35 am
    16    6   11 ar
    17    6    7 ar
    18    7    8 ar
    19    7   50 1
    20    8    9 ar
    21    8   51 1
    22    9   10 ar
    23    9   12 1
    24   10   11 ar
    25   10   52 1
    26   11   53 1
    27   12   17 1
    28   12   13 1
    29   13   14 1
    30   13   54 1
    31   13   55 1
    32   14   15 1
    33   14   56 1
    34   14   57 1
    35   15   16 1
    36   15   18 1
    37   15   58 1
    38   16   17 1
    39   16   59 1
    40   16   60 1
    41   17   61 1
    42   17   62 1
    43   18   19 1
    44   18   63 1
    45   18   76 1
    46   19   20 1
    47   19   64 1
    48   19   65 1
    49   20   21 1
    50   20   22 1
    51   20   34 1
    52   22   27 ar
    53   22   23 ar
    54   23   24 ar
    55   23   66 1
    56   24   25 ar
    57   24   67 1
    58   25   26 ar
    59   25   33 1
    60   26   27 ar
    61   26   28 1
    62   27   68 1
    63   28   29 1
    64   29   30 2
    65   29   31 2
    66   29   32 1
    67   32   69 1
    68   32   70 1
    69   32   71 1
    70   33   72 1
    71   34   73 1
    72   35   36 2
    73   35   37 1
    74   37   38 1
    75   37   74 1
    76   37   75 1
    77   38   39 2
    78   38   40 1
@<TRIPOS>MOLECULE
CHEMBL418600__1
   77    79     0     0     0
SMALL
USER_CHARGES

@<TRIPOS>ATOM
      1 C1          5.2927    2.0149    1.9227 C.3       1 <0>        -0.1520
      2 C2          3.9357    1.5292    1.4093 C.3       1 <0>        -0.1215
      3 C3          3.6514    0.1315    1.9631 C.3       1 <0>        -0.1393
      4 C4          2.2945   -0.3542    1.4497 C.3       1 <0>         0.1133
      5 N1          2.0223   -1.6925    1.9800 N.am      1 <0>        -0.5897
      6 C5          1.3495   -1.8391    3.2007 C.ar      1 <0>         0.1308
      7 C6          1.9454   -2.5379    4.2421 C.ar      1 <0>        -0.0648
      8 C7          1.2828   -2.6824    5.4447 C.ar      1 <0>        -0.1727
      9 C8          0.0202   -2.1287    5.6128 C.ar      1 <0>         0.1838
     10 C9         -0.5756   -1.4298    4.5710 C.ar      1 <0>        -0.1753
     11 C10         0.0897   -1.2806    3.3704 C.ar      1 <0>        -0.0893
     12 N2         -0.6514   -2.2755    6.8311 N.pl3     1 <0>        -0.6385
     13 C11        -2.0360   -1.8080    6.9836 C.3       1 <0>         0.1299
     14 C12        -2.8914   -2.9640    7.5115 C.3       1 <0>        -0.1597
     15 C13        -2.2669   -3.5095    8.7978 C.3       1 <0>         0.0288
     16 C14        -0.8642   -4.0437    8.4991 C.3       1 <0>        -0.1629
     17 C15         0.0122   -2.9055    7.9806 C.3       1 <0>         0.1280
     18 N3         -3.1026   -4.5965    9.3249 N.4       1 <0>        -0.5037
     19 C16        -2.5700   -5.0397   10.6202 C.3       1 <0>        -0.0481
     20 C17        -3.4405   -6.1719   11.1691 C.3       1 <0>         0.1343
     21 H1         -3.4344   -7.0071   10.4688 H         1 <0>         0.1380
     22 C18        -2.8940   -6.6266   12.4979 C.ar      1 <0>        -0.1184
     23 C19        -3.2611   -5.9675   13.6565 C.ar      1 <0>        -0.1043
     24 C20        -2.7633   -6.3804   14.8787 C.ar      1 <0>        -0.1135
     25 C21        -1.8944   -7.4570   14.9450 C.ar      1 <0>         0.1076
     26 C22        -1.5240   -8.1217   13.7781 C.ar      1 <0>         0.1378
     27 C23        -2.0315   -7.7051   12.5560 C.ar      1 <0>        -0.1464
     28 N4         -0.6459   -9.2100   13.8390 N.pl3     1 <0>        -1.0499
     29 S1          0.4511   -9.4579   12.6235 S.o2      1 <0>         2.6066
     30 O1          1.2219  -10.5719   13.0523 O.2       1 <0>        -0.9368
     31 O2         -0.3305   -9.5307   11.4390 O.2       1 <0>        -0.9491
     32 C24         1.4739   -7.9598   12.6060 C.3       1 <0>        -0.6672
     33 O3         -1.4037   -7.8640   16.1465 O.3       1 <0>        -0.4884
     34 O4         -4.7795   -5.7032   11.3400 O.3       1 <0>        -0.5445
     35 C25         2.4188   -2.7827    1.2939 C.2       1 <0>         0.5143
     36 O5          2.1203   -3.8898    1.6893 O.2       1 <0>        -0.4686
     37 C26         3.2330   -2.6261    0.0355 C.3       1 <0>        -0.2051
     38 C27         3.5439   -3.9862   -0.5342 C.2       1 <0>         0.4930
     39 O6          3.1416   -4.9897    0.0295 O.co2     1 <0>        -0.6579
     40 O7          4.1977   -4.0831   -1.5587 O.co2     1 <0>        -0.7015
     41 H2          6.0726    1.3282    1.5938 H         1 <0>         0.0563
     42 H3          5.4952    3.0106    1.5282 H         1 <0>         0.0535
     43 H4          5.2770    2.0519    3.0120 H         1 <0>         0.0506
     44 H5          3.1558    2.2159    1.7383 H         1 <0>         0.0599
     45 H6          3.9514    1.4921    0.3201 H         1 <0>         0.0664
     46 H7          4.4314   -0.5552    1.6341 H         1 <0>         0.0702
     47 H8          3.6357    0.1686    3.0524 H         1 <0>         0.0622
     48 H9          1.5145    0.3325    1.7787 H         1 <0>         0.0732
     49 H10         2.3102   -0.3912    0.3605 H         1 <0>         0.0848
     50 H11         2.9271   -2.9687    4.1113 H         1 <0>         0.1254
     51 H12         1.7462   -3.2263    6.2546 H         1 <0>         0.1212
     52 H13        -1.5576   -0.9994    4.7014 H         1 <0>         0.1215
     53 H14        -0.3718   -0.7333    2.5617 H         1 <0>         0.1250
     54 H15        -2.0659   -0.9788    7.6905 H         1 <0>         0.0696
     55 H16        -2.4198   -1.4810    6.0173 H         1 <0>         0.1035
     56 H17        -3.8992   -2.6050    7.7202 H         1 <0>         0.0968
     57 H18        -2.9343   -3.7558    6.7637 H         1 <0>         0.0945
     58 H19        -2.2015   -2.7109    9.5368 H         1 <0>         0.1391
     59 H20        -0.4291   -4.4533    9.4108 H         1 <0>         0.0944
     60 H21        -0.9262   -4.8254    7.7420 H         1 <0>         0.0962
     61 H22         0.9792   -3.3024    7.6719 H         1 <0>         0.1041
     62 H23         0.1530   -2.1678    8.7706 H         1 <0>         0.0691
     63 H24        -4.0482   -4.2656    9.4455 H         1 <0>         0.4309
     64 H25        -1.5486   -5.3972   10.4898 H         1 <0>         0.1459
     65 H26        -2.5760   -4.2045   11.3205 H         1 <0>         0.1382
     66 H27        -3.9382   -5.1276   13.6068 H         1 <0>         0.1315
     67 H28        -3.0518   -5.8631   15.7818 H         1 <0>         0.1439
     68 H29        -1.7499   -8.2210   11.6500 H         1 <0>         0.1716
     69 H30        -0.6799   -9.8190   14.5932 H         1 <0>         0.4320
     70 H31         1.9632   -7.8427   13.5729 H         1 <0>         0.1366
     71 H32         2.2291   -8.0446   11.8246 H         1 <0>         0.1401
     72 H33         0.8441   -7.0921   12.4100 H         1 <0>         0.1251
     73 H34        -1.9481   -8.5297   16.5886 H         1 <0>         0.3988
     74 H35        -4.8606   -4.9587   11.9517 H         1 <0>         0.3869
     75 H36         2.6665   -2.0474   -0.6941 H         1 <0>         0.0863
     76 H37         4.1635   -2.1077    0.2669 H         1 <0>         0.0878
     77 H38        -3.0971   -5.3697    8.6766 H         1 <0>         0.4297
@<TRIPOS>BOND
     1    1    2 1
     2    1   41 1
     3    1   42 1
     4    1   43 1
     5    2    3 1
     6    2   44 1
     7    2   45 1
     8    3    4 1
     9    3   46 1
    10    3   47 1
    11    4    5 1
    12    4   48 1
    13    4   49 1
    14    5    6 1
    15    5   35 am
    16    6   11 ar
    17    6    7 ar
    18    7    8 ar
    19    7   50 1
    20    8    9 ar
    21    8   51 1
    22    9   10 ar
    23    9   12 1
    24   10   11 ar
    25   10   52 1
    26   11   53 1
    27   12   17 1
    28   12   13 1
    29   13   14 1
    30   13   54 1
    31   13   55 1
    32   14   15 1
    33   14   56 1
    34   14   57 1
    35   15   16 1
    36   15   18 1
    37   15   58 1
    38   16   17 1
    39   16   59 1
    40   16   60 1
    41   17   61 1
    42   17   62 1
    43   18   19 1
    44   18   63 1
    45   18   77 1
    46   19   20 1
    47   19   64 1
    48   19   65 1
    49   20   21 1
    50   20   22 1
    51   20   34 1
    52   22   27 ar
    53   22   23 ar
    54   23   24 ar
    55   23   66 1
    56   24   25 ar
    57   24   67 1
    58   25   26 ar
    59   25   33 1
    60   26   27 ar
    61   26   28 1
    62   27   68 1
    63   28   29 1
    64   28   69 1
    65   29   30 2
    66   29   31 2
    67   29   32 1
    68   32   70 1
    69   32   71 1
    70   32   72 1
    71   33   73 1
    72   34   74 1
    73   35   36 2
    74   35   37 1
    75   37   38 1
    76   37   75 1
    77   37   76 1
    78   38   39 2
    79   38   40 1
@<TRIPOS>MOLECULE
CHEMBL299175
   49    51     0     0     0
SMALL
USER_CHARGES

@<TRIPOS>ATOM
      1 C1         -0.0173    1.4248    0.0099 C.3       1 <0>         0.0214
      2 O1          0.0021   -0.0041    0.0020 O.3       1 <0>        -0.2943
      3 C2          0.6062   -0.6075   -1.0565 C.ar      1 <0>         0.1641
      4 C3          1.1731    0.1601   -2.0626 C.ar      1 <0>        -0.2213
      5 C4          1.7874   -0.4523   -3.1388 C.ar      1 <0>        -0.0509
      6 C5          1.8393   -1.8314   -3.2169 C.ar      1 <0>        -0.2589
      7 C6          1.2749   -2.6062   -2.2150 C.ar      1 <0>         0.1628
      8 C7          0.6613   -1.9944   -1.1284 C.ar      1 <0>         0.0415
      9 O2          0.1111   -2.7512   -0.1402 O.3       1 <0>        -0.3122
     10 C8         -1.2598   -3.1236   -0.2953 C.3       1 <0>         0.0344
     11 O3          1.3261   -3.9630   -2.2930 O.3       1 <0>        -0.2937
     12 C9          1.9770   -4.5231   -3.4352 C.3       1 <0>         0.0226
     13 C10         2.4017    0.3858   -4.2302 C.3       1 <0>        -0.1005
     14 C11         3.8642    0.6769   -3.8877 C.3       1 <0>         0.0913
     15 C12         4.4303    1.6363   -4.9015 C.ar      1 <0>        -0.1220
     16 C13         3.6379    2.6934   -5.3258 C.ar      1 <0>        -0.1065
     17 C14         4.1184    3.5995   -6.2539 C.ar      1 <0>         0.0986
     18 C15         5.4050    3.4491   -6.7636 C.ar      1 <0>         0.1146
     19 C16         6.1913    2.3933   -6.3380 C.ar      1 <0>        -0.1184
     20 C17         5.7038    1.4870   -5.4086 C.ar      1 <0>        -0.0786
     21 C18         6.5917    0.3466   -4.9793 C.3       1 <0>        -0.1064
     22 C19         6.0465   -0.2790   -3.6949 C.3       1 <0>        -0.0039
     23 N1          4.6197   -0.5790   -3.8880 N.4       1 <0>        -0.5061
     24 O4          5.8865    4.3355   -7.6757 O.3       1 <0>        -0.4818
     25 O5          3.3372    4.6333   -6.6664 O.3       1 <0>        -0.4808
     26 H1          1.0053    1.8021    0.0021 H         1 <0>         0.0596
     27 H2         -0.5445    1.7859   -0.8732 H         1 <0>         0.0614
     28 H3         -0.5275    1.7763    0.9067 H         1 <0>         0.1113
     29 H4          1.1343    1.2379   -2.0054 H         1 <0>         0.1422
     30 H5          2.3199   -2.3061   -4.0596 H         1 <0>         0.1338
     31 H6         -1.3771   -3.7054   -1.2095 H         1 <0>         0.0480
     32 H7         -1.5724   -3.7233    0.5596 H         1 <0>         0.1009
     33 H8         -1.8756   -2.2262   -0.3542 H         1 <0>         0.0484
     34 H9          1.4660   -4.1967   -4.3410 H         1 <0>         0.0614
     35 H10         3.0141   -4.1888   -3.4626 H         1 <0>         0.0529
     36 H11         1.9474   -5.6109   -3.3732 H         1 <0>         0.1118
     37 H12         2.3506   -0.1544   -5.1756 H         1 <0>         0.1053
     38 H13         1.8554    1.3249   -4.3183 H         1 <0>         0.1259
     39 H14         3.9182    1.1285   -2.8971 H         1 <0>         0.1509
     40 H15         2.6400    2.8092   -4.9293 H         1 <0>         0.1465
     41 H16         7.1899    2.2742   -6.7319 H         1 <0>         0.1471
     42 H17         6.6193   -0.4072   -5.7662 H         1 <0>         0.1078
     43 H18         7.6001    0.7199   -4.8009 H         1 <0>         0.1269
     44 H19         6.5881   -1.1997   -3.4778 H         1 <0>         0.1435
     45 H20         6.1642    0.4215   -2.8681 H         1 <0>         0.1366
     46 H21         4.2942   -1.1691   -3.1371 H         1 <0>         0.4340
     47 H22         6.3436    5.0928   -7.2849 H         1 <0>         0.4014
     48 H23         3.4293    5.4337   -6.1316 H         1 <0>         0.3994
     49 H24         4.4903   -1.0508   -4.7705 H         1 <0>         0.4278
@<TRIPOS>BOND
     1    1    2 1
     2    1   26 1
     3    1   27 1
     4    1   28 1
     5    2    3 1
     6    3    8 ar
     7    3    4 ar
     8    4    5 ar
     9    4   29 1
    10    5    6 ar
    11    5   13 1
    12    6    7 ar
    13    6   30 1
    14    7    8 ar
    15    7   11 1
    16    8    9 1
    17    9   10 1
    18   10   31 1
    19   10   32 1
    20   10   33 1
    21   11   12 1
    22   12   34 1
    23   12   35 1
    24   12   36 1
    25   13   14 1
    26   13   37 1
    27   13   38 1
    28   14   23 1
    29   14   15 1
    30   14   39 1
    31   15   20 ar
    32   15   16 ar
    33   16   17 ar
    34   16   40 1
    35   17   18 ar
    36   17   25 1
    37   18   19 ar
    38   18   24 1
    39   19   20 ar
    40   19   41 1
    41   20   21 1
    42   21   22 1
    43   21   42 1
    44   21   43 1
    45   22   23 1
    46   22   44 1
    47   22   45 1
    48   23   46 1
    49   23   49 1
    50   24   47 1
    51   25   48 1
@<TRIPOS>MOLECULE
CHEMBL299175__1
   48    50     0     0     0
SMALL
USER_CHARGES

@<TRIPOS>ATOM
      1 C1         -0.0173    1.4248    0.0099 C.3       1 <0>         0.0248
      2 O1          0.0021   -0.0041    0.0020 O.3       1 <0>        -0.3024
      3 C2         -1.2011   -0.6379    0.0101 C.ar      1 <0>         0.1516
      4 C3         -2.3748    0.1005    0.0195 C.ar      1 <0>        -0.2326
      5 C4         -3.5982   -0.5428    0.0277 C.ar      1 <0>        -0.0109
      6 C5         -3.6572   -1.9238    0.0266 C.ar      1 <0>        -0.2257
      7 C6         -2.4882   -2.6696    0.0172 C.ar      1 <0>         0.1522
      8 C7         -1.2561   -2.0266    0.0032 C.ar      1 <0>         0.0238
      9 O2         -0.1065   -2.7549   -0.0117 O.3       1 <0>        -0.3130
     10 C8          0.4536   -3.1089    1.2544 C.3       1 <0>         0.0352
     11 O3         -2.5472   -4.0282    0.0166 O.3       1 <0>        -0.3024
     12 C9         -3.8474   -4.6211    0.0259 C.3       1 <0>         0.0241
     13 C10        -4.8712    0.2637    0.0384 C.3       1 <0>        -0.0755
     14 C11        -5.3128    0.5387   -1.4005 C.3       1 <0>         0.1371
     15 C12        -6.4995    1.4668   -1.3876 C.ar      1 <0>        -0.0674
     16 C13        -6.4870    2.5392   -0.5068 C.ar      1 <0>        -0.1267
     17 C14        -7.5518    3.4207   -0.4619 C.ar      1 <0>         0.0784
     18 C15        -8.6418    3.2296   -1.3064 C.ar      1 <0>         0.0841
     19 C16        -8.6507    2.1581   -2.1812 C.ar      1 <0>        -0.1321
     20 C17        -7.5810    1.2756   -2.2208 C.ar      1 <0>        -0.0554
     21 C18        -7.6429    0.1171   -3.1832 C.3       1 <0>        -0.0777
     22 C19        -6.2474   -0.4768   -3.3762 C.3       1 <0>         0.0534
     23 N1         -5.6594   -0.7288   -2.0510 N.3       1 <0>        -0.6790
     24 O4         -9.6925    4.0923   -1.2718 O.3       1 <0>        -0.4876
     25 O5         -7.5342    4.4694    0.4037 O.3       1 <0>        -0.4868
     26 H1          1.0053    1.8021    0.0021 H         1 <0>         0.1035
     27 H2         -0.5445    1.7859   -0.8732 H         1 <0>         0.0571
     28 H3         -0.5275    1.7763    0.9067 H         1 <0>         0.0574
     29 H4         -2.3329    1.1797    0.0207 H         1 <0>         0.1337
     30 H5         -4.6151   -2.4227    0.0334 H         1 <0>         0.1421
     31 H6         -0.2648   -3.7070    1.8151 H         1 <0>         0.0442
     32 H7          1.3650   -3.6864    1.0998 H         1 <0>         0.0926
     33 H8          0.6878   -2.2033    1.8141 H         1 <0>         0.0436
     34 H9         -4.3978   -4.3036   -0.8597 H         1 <0>         0.0604
     35 H10        -3.7517   -5.7069    0.0243 H         1 <0>         0.1027
     36 H11        -4.3845   -4.3050    0.9202 H         1 <0>         0.0578
     37 H12        -5.6506   -0.2944    0.5572 H         1 <0>         0.0906
     38 H13        -4.6980    1.2092    0.5523 H         1 <0>         0.0845
     39 H14        -4.4940    1.0100   -1.9442 H         1 <0>         0.0558
     40 H15        -5.6404    2.6865    0.1474 H         1 <0>         0.1352
     41 H16        -9.4951    2.0079   -2.8375 H         1 <0>         0.1339
     42 H17        -8.3100   -0.6480   -2.7860 H         1 <0>         0.0880
     43 H18        -8.0242    0.4644   -4.1434 H         1 <0>         0.0801
     44 H19        -6.3213   -1.4138   -3.9282 H         1 <0>         0.0837
     45 H20        -5.6227    0.2271   -3.9260 H         1 <0>         0.0383
     46 H21        -4.8530   -1.3312   -2.1218 H         1 <0>         0.3503
     47 H22        -9.6067    4.8410   -1.8778 H         1 <0>         0.3878
     48 H23        -7.1402    5.2738    0.0392 H         1 <0>         0.3869
@<TRIPOS>BOND
     1    1    2 1
     2    1   26 1
     3    1   27 1
     4    1   28 1
     5    2    3 1
     6    3    8 ar
     7    3    4 ar
     8    4    5 ar
     9    4   29 1
    10    5    6 ar
    11    5   13 1
    12    6    7 ar
    13    6   30 1
    14    7    8 ar
    15    7   11 1
    16    8    9 1
    17    9   10 1
    18   10   31 1
    19   10   32 1
    20   10   33 1
    21   11   12 1
    22   12   34 1
    23   12   35 1
    24   12   36 1
    25   13   14 1
    26   13   37 1
    27   13   38 1
    28   14   23 1
    29   14   15 1
    30   14   39 1
    31   15   20 ar
    32   15   16 ar
    33   16   17 ar
    34   16   40 1
    35   17   18 ar
    36   17   25 1
    37   18   19 ar
    38   18   24 1
    39   19   20 ar
    40   19   41 1
    41   20   21 1
    42   21   22 1
    43   21   42 1
    44   21   43 1
    45   22   23 1
    46   22   44 1
    47   22   45 1
    48   23   46 1
    49   24   47 1
    50   25   48 1
@<TRIPOS>MOLECULE
CHEMBL299175__2
   49    51     0     0     0
SMALL
USER_CHARGES

@<TRIPOS>ATOM
      1 C1         -0.0173    1.4248    0.0099 C.3       1 <0>         0.0227
      2 O1          0.0021   -0.0041    0.0020 O.3       1 <0>        -0.2936
      3 C2          0.6062   -0.6075   -1.0565 C.ar      1 <0>         0.1626
      4 C3          1.1731    0.1601   -2.0626 C.ar      1 <0>        -0.2591
      5 C4          1.7874   -0.4523   -3.1388 C.ar      1 <0>        -0.0517
      6 C5          1.8393   -1.8314   -3.2169 C.ar      1 <0>        -0.2211
      7 C6          1.2749   -2.6062   -2.2150 C.ar      1 <0>         0.1643
      8 C7          0.6613   -1.9944   -1.1284 C.ar      1 <0>         0.0417
      9 O2          0.1111   -2.7512   -0.1402 O.3       1 <0>        -0.3121
     10 C8         -1.2598   -3.1236   -0.2953 C.3       1 <0>         0.0345
     11 O3          1.3261   -3.9630   -2.2930 O.3       1 <0>        -0.2943
     12 C9          1.9770   -4.5231   -3.4352 C.3       1 <0>         0.0212
     13 C10         2.4017    0.3858   -4.2302 C.3       1 <0>        -0.0994
     14 C11         3.8642    0.6769   -3.8877 C.3       1 <0>         0.0905
     15 C12         4.5146    1.3843   -5.0475 C.ar      1 <0>        -0.1214
     16 C13         4.2199    0.9545   -6.3335 C.ar      1 <0>        -0.1064
     17 C14         4.7964    1.5741   -7.4276 C.ar      1 <0>         0.0987
     18 C15         5.6778    2.6343   -7.2358 C.ar      1 <0>         0.1143
     19 C16         5.9682    3.0599   -5.9517 C.ar      1 <0>        -0.1182
     20 C17         5.3861    2.4361   -4.8586 C.ar      1 <0>        -0.0792
     21 C18         5.7243    2.9378   -3.4777 C.3       1 <0>        -0.1060
     22 C19         5.3185    1.8961   -2.4344 C.3       1 <0>        -0.0043
     23 N1          3.9220    1.5053   -2.6801 N.4       1 <0>        -0.5056
     24 O4          6.2508    3.2486   -8.3052 O.3       1 <0>        -0.4812
     25 O5          4.5029    1.1495   -8.6858 O.3       1 <0>        -0.4804
     26 H1          1.0053    1.8021    0.0021 H         1 <0>         0.0528
     27 H2         -0.5445    1.7859   -0.8732 H         1 <0>         0.0611
     28 H3         -0.5275    1.7763    0.9067 H         1 <0>         0.1117
     29 H4          1.1343    1.2379   -2.0054 H         1 <0>         0.1336
     30 H5          2.3199   -2.3061   -4.0596 H         1 <0>         0.1425
     31 H6         -1.3771   -3.7054   -1.2095 H         1 <0>         0.0485
     32 H7         -1.5724   -3.7233    0.5596 H         1 <0>         0.1009
     33 H8         -1.8756   -2.2262   -0.3542 H         1 <0>         0.0478
     34 H9          1.4660   -4.1967   -4.3410 H         1 <0>         0.0614
     35 H10         3.0141   -4.1888   -3.4626 H         1 <0>         0.0602
     36 H11         1.9474   -5.6109   -3.3732 H         1 <0>         0.1116
     37 H12         2.3506   -0.1544   -5.1756 H         1 <0>         0.1256
     38 H13         1.8554    1.3249   -4.3183 H         1 <0>         0.1047
     39 H14         4.3841   -0.2633   -3.7037 H         1 <0>         0.1512
     40 H15         3.5363    0.1315   -6.4811 H         1 <0>         0.1466
     41 H16         6.6521    3.8818   -5.8000 H         1 <0>         0.1472
     42 H17         6.7971    3.1189   -3.4106 H         1 <0>         0.1272
     43 H18         5.1883    3.8678   -3.2887 H         1 <0>         0.1074
     44 H19         5.9633    1.0215   -2.5204 H         1 <0>         0.1369
     45 H20         5.4087    2.3237   -1.4359 H         1 <0>         0.1437
     46 H21         3.3580    2.3318   -2.8102 H         1 <0>         0.4270
     47 H22         5.7410    3.9943   -8.6503 H         1 <0>         0.4008
     48 H23         3.7424    1.5948   -9.0838 H         1 <0>         0.3990
     49 H24         3.5752    0.9787   -1.8924 H         1 <0>         0.4341
@<TRIPOS>BOND
     1    1    2 1
     2    1   26 1
     3    1   27 1
     4    1   28 1
     5    2    3 1
     6    3    8 ar
     7    3    4 ar
     8    4    5 ar
     9    4   29 1
    10    5    6 ar
    11    5   13 1
    12    6    7 ar
    13    6   30 1
    14    7    8 ar
    15    7   11 1
    16    8    9 1
    17    9   10 1
    18   10   31 1
    19   10   32 1
    20   10   33 1
    21   11   12 1
    22   12   34 1
    23   12   35 1
    24   12   36 1
    25   13   14 1
    26   13   37 1
    27   13   38 1
    28   14   23 1
    29   14   15 1
    30   14   39 1
    31   15   20 ar
    32   15   16 ar
    33   16   17 ar
    34   16   40 1
    35   17   18 ar
    36   17   25 1
    37   18   19 ar
    38   18   24 1
    39   19   20 ar
    40   19   41 1
    41   20   21 1
    42   21   22 1
    43   21   42 1
    44   21   43 1
    45   22   23 1
    46   22   44 1
    47   22   45 1
    48   23   46 1
    49   23   49 1
    50   24   47 1
    51   25   48 1
@<TRIPOS>MOLECULE
CHEMBL299175__3
   48    50     0     0     0
SMALL
USER_CHARGES

@<TRIPOS>ATOM
      1 C1         -0.0173    1.4248    0.0099 C.3       1 <0>         0.0256
      2 O1          0.0021   -0.0041    0.0020 O.3       1 <0>        -0.3036
      3 C2         -1.2011   -0.6379    0.0101 C.ar      1 <0>         0.1502
      4 C3         -2.3748    0.1005    0.0195 C.ar      1 <0>        -0.2074
      5 C4         -3.5982   -0.5428    0.0277 C.ar      1 <0>         0.0035
      6 C5         -3.6572   -1.9238    0.0266 C.ar      1 <0>        -0.2323
      7 C6         -2.4882   -2.6696    0.0172 C.ar      1 <0>         0.1498
      8 C7         -1.2561   -2.0266    0.0032 C.ar      1 <0>         0.0235
      9 O2         -0.1065   -2.7549   -0.0117 O.3       1 <0>        -0.3131
     10 C8          0.4536   -3.1089    1.2544 C.3       1 <0>         0.0355
     11 O3         -2.5472   -4.0282    0.0166 O.3       1 <0>        -0.3036
     12 C9         -3.8474   -4.6211    0.0259 C.3       1 <0>         0.0253
     13 C10        -4.8712    0.2637    0.0384 C.3       1 <0>        -0.0767
     14 C11        -5.3128    0.5387   -1.4005 C.3       1 <0>         0.1353
     15 C12        -6.6588    1.2152   -1.3868 C.ar      1 <0>        -0.1063
     16 C13        -7.6205    0.7499   -0.5010 C.ar      1 <0>        -0.1236
     17 C14        -8.8723    1.3362   -0.4551 C.ar      1 <0>         0.0801
     18 C15        -9.1677    2.3994   -1.3037 C.ar      1 <0>         0.0840
     19 C16        -8.2053    2.8612   -2.1835 C.ar      1 <0>        -0.1292
     20 C17        -6.9505    2.2709   -2.2240 C.ar      1 <0>        -0.0676
     21 C18        -5.9323    2.8173   -3.1920 C.3       1 <0>        -0.1202
     22 C19        -4.7997    1.8083   -3.3836 C.3       1 <0>         0.0551
     23 N1         -4.3168    1.3905   -2.0579 N.3       1 <0>        -0.6657
     24 O4        -10.3965    2.9810   -1.2682 O.3       1 <0>        -0.4874
     25 O5         -9.8107    0.8758    0.4149 O.3       1 <0>        -0.4870
     26 H1          1.0053    1.8021    0.0021 H         1 <0>         0.1009
     27 H2         -0.5445    1.7859   -0.8732 H         1 <0>         0.0604
     28 H3         -0.5275    1.7763    0.9067 H         1 <0>         0.0549
     29 H4         -2.3329    1.1797    0.0207 H         1 <0>         0.1332
     30 H5         -4.6151   -2.4227    0.0334 H         1 <0>         0.1320
     31 H6         -0.2648   -3.7070    1.8151 H         1 <0>         0.0431
     32 H7          1.3650   -3.6864    1.0998 H         1 <0>         0.0916
     33 H8          0.6878   -2.2033    1.8141 H         1 <0>         0.0432
     34 H9         -4.3978   -4.3036   -0.8597 H         1 <0>         0.0576
     35 H10        -3.7517   -5.7069    0.0243 H         1 <0>         0.1024
     36 H11        -4.3845   -4.3050    0.9202 H         1 <0>         0.0562
     37 H12        -5.6506   -0.2944    0.5572 H         1 <0>         0.0855
     38 H13        -4.6980    1.2092    0.5523 H         1 <0>         0.0789
     39 H14        -5.3907   -0.4055   -1.9395 H         1 <0>         0.0991
     40 H15        -7.3901   -0.0754    0.1564 H         1 <0>         0.1364
     41 H16        -8.4322    3.6857   -2.8430 H         1 <0>         0.1333
     42 H17        -6.4121    3.0092   -4.1518 H         1 <0>         0.0841
     43 H18        -5.5244    3.7491   -2.8004 H         1 <0>         0.0807
     44 H19        -5.1709    0.9402   -3.9284 H         1 <0>         0.0782
     45 H20        -3.9858    2.2729   -3.9402 H         1 <0>         0.0871
     46 H21        -4.0917    2.1909   -1.4863 H         1 <0>         0.3410
     47 H22       -10.4652    3.7177   -0.6455 H         1 <0>         0.3883
     48 H23        -9.7936    1.3107    1.2784 H         1 <0>         0.3878
@<TRIPOS>BOND
     1    1    2 1
     2    1   26 1
     3    1   27 1
     4    1   28 1
     5    2    3 1
     6    3    8 ar
     7    3    4 ar
     8    4    5 ar
     9    4   29 1
    10    5    6 ar
    11    5   13 1
    12    6    7 ar
    13    6   30 1
    14    7    8 ar
    15    7   11 1
    16    8    9 1
    17    9   10 1
    18   10   31 1
    19   10   32 1
    20   10   33 1
    21   11   12 1
    22   12   34 1
    23   12   35 1
    24   12   36 1
    25   13   14 1
    26   13   37 1
    27   13   38 1
    28   14   23 1
    29   14   15 1
    30   14   39 1
    31   15   20 ar
    32   15   16 ar
    33   16   17 ar
    34   16   40 1
    35   17   18 ar
    36   17   25 1
    37   18   19 ar
    38   18   24 1
    39   19   20 ar
    40   19   41 1
    41   20   21 1
    42   21   22 1
    43   21   42 1
    44   21   43 1
    45   22   23 1
    46   22   44 1
    47   22   45 1
    48   23   46 1
    49   24   47 1
    50   25   48 1
@<TRIPOS>MOLECULE
CHEMBL26917
   45    46     0     0     0
SMALL
USER_CHARGES

@<TRIPOS>ATOM
      1 C1         -0.0184    1.5028    0.0103 C.3       1 <0>        -0.1163
      2 C2          0.0021   -0.0041    0.0020 C.ar      1 <0>        -0.0983
      3 C3          0.0056   -0.6848   -1.2003 C.ar      1 <0>        -0.0820
      4 C4          0.0245   -2.0659   -1.2119 C.ar      1 <0>        -0.2057
      5 C5          0.0398   -2.7663   -0.0155 C.ar      1 <0>         0.1237
      6 C6          0.0361   -2.0811    1.1932 C.ar      1 <0>        -0.1177
      7 C7          0.0229   -0.6994    1.1996 C.ar      1 <0>        -0.0544
      8 C8          0.0285   -0.1944    2.6267 C.3       1 <0>        -0.0858
      9 C9         -0.3873   -1.4072    3.4860 C.3       1 <0>        -0.1226
     10 C10         0.0501   -2.5998    2.6150 C.3       1 <0>        -0.0722
     11 O1          0.0579   -4.1251   -0.0250 O.3       1 <0>        -0.3008
     12 C11         0.0602   -4.7650   -1.3027 C.3       1 <0>         0.0297
     13 C12         0.0814   -6.2830   -1.1129 C.3       1 <0>         0.0868
     14 C13         0.2095   -6.9657   -2.4761 C.3       1 <0>        -0.0457
     15 N1          0.2300   -8.4232   -2.2938 N.4       1 <0>        -0.5018
     16 C14         0.3530   -9.0787   -3.6027 C.3       1 <0>         0.0237
     17 C15         0.4996  -10.5888   -3.4051 C.3       1 <0>        -0.1851
     18 C16        -0.8979   -8.7925   -4.4360 C.3       1 <0>        -0.1864
     19 O2         -1.1310   -6.7013   -0.4827 O.3       1 <0>        -0.5432
     20 H1          1.0042    1.8801    0.0026 H         1 <0>         0.0722
     21 H2         -0.5455    1.8639   -0.8728 H         1 <0>         0.0675
     22 H3         -0.5286    1.8543    0.9071 H         1 <0>         0.0688
     23 H4         -0.0066   -0.1371   -2.1311 H         1 <0>         0.1298
     24 H5          0.0269   -2.5991   -2.1511 H         1 <0>         0.1252
     25 H6          1.0274    0.1417    2.9050 H         1 <0>         0.0866
     26 H7         -0.6905    0.6164    2.7437 H         1 <0>         0.0817
     27 H8          0.1392   -1.4045    4.4404 H         1 <0>         0.0818
     28 H9         -1.4666   -1.4228    3.6377 H         1 <0>         0.0741
     29 H10        -0.6467   -3.4313    2.7212 H         1 <0>         0.0758
     30 H11         1.0567   -2.9109    2.8943 H         1 <0>         0.0781
     31 H12        -0.8365   -4.4802   -1.8533 H         1 <0>         0.0750
     32 H13         0.9433   -4.4564   -1.8621 H         1 <0>         0.0801
     33 H14         0.9301   -6.5591   -0.4871 H         1 <0>         0.1350
     34 H15        -0.6392   -6.6897   -3.1019 H         1 <0>         0.1401
     35 H16         1.1343   -6.6467   -2.9568 H         1 <0>         0.1464
     36 H17         1.0156   -8.6788   -1.7146 H         1 <0>         0.4306
     37 H18         1.2309   -8.6932   -4.1211 H         1 <0>         0.1397
     38 H19        -0.3784  -10.9743   -2.8867 H         1 <0>         0.0829
     39 H20         0.5908  -11.0752   -4.3762 H         1 <0>         0.1082
     40 H21         1.3907  -10.7927   -2.8114 H         1 <0>         0.0830
     41 H22        -1.7758   -9.1781   -3.9176 H         1 <0>         0.0833
     42 H23        -1.0023   -7.7167   -4.5768 H         1 <0>         0.0796
     43 H24        -0.8066   -9.2789   -5.4072 H         1 <0>         0.1079
     44 H25        -1.9293   -6.4877   -0.9850 H         1 <0>         0.3894
     45 H26        -0.6261   -8.7186   -1.8489 H         1 <0>         0.4312
@<TRIPOS>BOND
     1    1    2 1
     2    1   20 1
     3    1   21 1
     4    1   22 1
     5    2    7 ar
     6    2    3 ar
     7    3    4 ar
     8    3   23 1
     9    4    5 ar
    10    4   24 1
    11    5    6 ar
    12    5   11 1
    13    6   10 1
    14    6    7 ar
    15    7    8 1
    16    8    9 1
    17    8   25 1
    18    8   26 1
    19    9   10 1
    20    9   27 1
    21    9   28 1
    22   10   29 1
    23   10   30 1
    24   11   12 1
    25   12   13 1
    26   12   31 1
    27   12   32 1
    28   13   14 1
    29   13   19 1
    30   13   33 1
    31   14   15 1
    32   14   34 1
    33   14   35 1
    34   15   16 1
    35   15   36 1
    36   15   45 1
    37   16   17 1
    38   16   18 1
    39   16   37 1
    40   17   38 1
    41   17   39 1
    42   17   40 1
    43   18   41 1
    44   18   42 1
    45   18   43 1
    46   19   44 1
@<TRIPOS>MOLECULE
CHEMBL26917__1
   45    46     0     0     0
SMALL
USER_CHARGES

@<TRIPOS>ATOM
      1 C1         -0.0184    1.5028    0.0103 C.3       1 <0>        -0.1163
      2 C2          0.0021   -0.0041    0.0020 C.ar      1 <0>        -0.0983
      3 C3          0.0056   -0.6848   -1.2003 C.ar      1 <0>        -0.0819
      4 C4          0.0245   -2.0659   -1.2119 C.ar      1 <0>        -0.2056
      5 C5          0.0398   -2.7663   -0.0155 C.ar      1 <0>         0.1237
      6 C6          0.0361   -2.0811    1.1932 C.ar      1 <0>        -0.1177
      7 C7          0.0229   -0.6994    1.1996 C.ar      1 <0>        -0.0543
      8 C8          0.0285   -0.1944    2.6267 C.3       1 <0>        -0.0858
      9 C9         -0.3873   -1.4072    3.4860 C.3       1 <0>        -0.1227
     10 C10         0.0501   -2.5998    2.6150 C.3       1 <0>        -0.0718
     11 O1          0.0579   -4.1251   -0.0250 O.3       1 <0>        -0.3009
     12 C11         0.0602   -4.7650   -1.3027 C.3       1 <0>         0.0296
     13 C12         0.0814   -6.2830   -1.1129 C.3       1 <0>         0.0870
     14 C13        -0.0419   -6.9691   -2.4749 C.3       1 <0>        -0.0454
     15 N1         -0.1419   -8.4222   -2.2839 N.4       1 <0>        -0.5023
     16 C14        -0.2603   -9.0809   -3.5916 C.3       1 <0>         0.0239
     17 C15        -0.2390  -10.5990   -3.4017 C.3       1 <0>        -0.1851
     18 C16        -1.5766   -8.6681   -4.2533 C.3       1 <0>        -0.1867
     19 O2          1.3108   -6.6686   -0.4949 O.3       1 <0>        -0.5429
     20 H1          1.0042    1.8801    0.0026 H         1 <0>         0.0722
     21 H2         -0.5455    1.8639   -0.8728 H         1 <0>         0.0675
     22 H3         -0.5286    1.8543    0.9071 H         1 <0>         0.0687
     23 H4         -0.0066   -0.1371   -2.1311 H         1 <0>         0.1298
     24 H5          0.0269   -2.5991   -2.1511 H         1 <0>         0.1252
     25 H6          1.0274    0.1417    2.9050 H         1 <0>         0.0867
     26 H7         -0.6905    0.6164    2.7437 H         1 <0>         0.0817
     27 H8          0.1392   -1.4045    4.4404 H         1 <0>         0.0819
     28 H9         -1.4666   -1.4228    3.6377 H         1 <0>         0.0739
     29 H10        -0.6467   -3.4313    2.7212 H         1 <0>         0.0747
     30 H11         1.0567   -2.9109    2.8943 H         1 <0>         0.0789
     31 H12        -0.8365   -4.4802   -1.8533 H         1 <0>         0.0796
     32 H13         0.9433   -4.4564   -1.8621 H         1 <0>         0.0755
     33 H14        -0.7533   -6.5816   -0.4787 H         1 <0>         0.1338
     34 H15        -0.9349   -6.6073   -2.9844 H         1 <0>         0.1465
     35 H16         0.8375   -6.7415   -3.0773 H         1 <0>         0.1398
     36 H17         0.6848   -8.7571   -1.8122 H         1 <0>         0.4337
     37 H18         0.5745   -8.7824   -4.2257 H         1 <0>         0.1392
     38 H19        -1.0738  -10.8976   -2.7676 H         1 <0>         0.0828
     39 H20        -0.3269  -11.0877   -4.3720 H         1 <0>         0.1082
     40 H21         0.6987  -10.8931   -2.9303 H         1 <0>         0.0831
     41 H22        -2.4113   -8.9667   -3.6191 H         1 <0>         0.0835
     42 H23        -1.5917   -7.5866   -4.3885 H         1 <0>         0.0802
     43 H24        -1.6644   -9.1569   -5.2236 H         1 <0>         0.1080
     44 H25         2.0981   -6.4338   -1.0050 H         1 <0>         0.3901
     45 H26        -0.9560   -8.6329   -1.7262 H         1 <0>         0.4283
@<TRIPOS>BOND
     1    1    2 1
     2    1   20 1
     3    1   21 1
     4    1   22 1
     5    2    7 ar
     6    2    3 ar
     7    3    4 ar
     8    3   23 1
     9    4    5 ar
    10    4   24 1
    11    5    6 ar
    12    5   11 1
    13    6   10 1
    14    6    7 ar
    15    7    8 1
    16    8    9 1
    17    8   25 1
    18    8   26 1
    19    9   10 1
    20    9   27 1
    21    9   28 1
    22   10   29 1
    23   10   30 1
    24   11   12 1
    25   12   13 1
    26   12   31 1
    27   12   32 1
    28   13   14 1
    29   13   19 1
    30   13   33 1
    31   14   15 1
    32   14   34 1
    33   14   35 1
    34   15   16 1
    35   15   36 1
    36   15   45 1
    37   16   17 1
    38   16   18 1
    39   16   37 1
    40   17   38 1
    41   17   39 1
    42   17   40 1
    43   18   41 1
    44   18   42 1
    45   18   43 1
    46   19   44 1
@<TRIPOS>MOLECULE
CHEMBL157881
   65    67     0     0     0
SMALL
USER_CHARGES

@<TRIPOS>ATOM
      1 C1         -0.0187    1.5258    0.0104 C.3       1 <0>        -0.1780
      2 C2          0.0021   -0.0041    0.0020 C.3       1 <0>         0.0594
      3 C3         -1.4333   -0.5336    0.0129 C.3       1 <0>        -0.1367
      4 C4         -1.4126   -2.0635    0.0045 C.3       1 <0>        -0.1344
      5 C5         -0.6726   -2.5703    1.2440 C.3       1 <0>        -0.0949
      6 C6          0.7628   -2.0407    1.2331 C.3       1 <0>        -0.1379
      7 C7          0.7421   -0.5109    1.2415 C.3       1 <0>        -0.1352
      8 C8         -0.6518   -4.1002    1.2356 C.3       1 <0>         0.1830
      9 C9         -2.0829   -4.6290    1.1207 C.3       1 <0>        -0.1727
     10 C10         0.1711   -4.5925    0.0434 C.3       1 <0>        -0.1745
     11 N1         -0.0496   -4.5872    2.4791 N.am      1 <0>        -0.7249
     12 C11         0.0746   -5.9119    2.6940 C.2       1 <0>         0.5156
     13 O1         -0.3123   -6.7008    1.8580 O.2       1 <0>        -0.4991
     14 C12         0.6941   -6.4129    3.9732 C.3       1 <0>        -0.1245
     15 Br1         0.7207   -8.3787    3.9624 Br        1 <0>        -0.0894
     16 N2          0.6897   -0.4778   -1.2066 N.4       1 <0>        -0.5000
     17 C13        -0.0208    0.0088   -2.3967 C.3       1 <0>        -0.0534
     18 C14         0.6953   -0.4846   -3.6555 C.3       1 <0>         0.0876
     19 C15         0.0302    0.1233   -4.8920 C.3       1 <0>         0.0303
     20 O2          0.7689   -0.2434   -6.0590 O.3       1 <0>        -0.2964
     21 C16         0.3083    0.2183   -7.2511 C.ar      1 <0>         0.1688
     22 C17        -0.8230    1.0100   -7.3000 C.ar      1 <0>        -0.2423
     23 C18        -1.2947    1.4830   -8.5161 C.ar      1 <0>        -0.0618
     24 C19        -0.6464    1.1725   -9.6913 C.ar      1 <0>        -0.1566
     25 C20         0.4953    0.3767   -9.6676 C.ar      1 <0>         0.1321
     26 C21         0.9803   -0.1001   -8.4374 C.ar      1 <0>        -0.1319
     27 C22         2.1765   -0.8860   -8.7496 C.2       1 <0>        -0.1882
     28 C23         2.3413   -0.8375  -10.0807 C.2       1 <0>         0.0491
     29 N3          1.3406   -0.0939  -10.6473 N.pl3     1 <0>        -0.5917
     30 H1          1.2473    0.0835  -11.5964 H         1 <0>         0.4218
     31 O3          0.6132   -1.9097   -3.7226 O.3       1 <0>        -0.5415
     32 H2          1.0039    1.9031    0.0027 H         1 <0>         0.0846
     33 H3         -0.5459    1.8868   -0.8726 H         1 <0>         0.0828
     34 H4         -0.5289    1.8773    0.9072 H         1 <0>         0.1077
     35 H5         -1.9435   -0.1821    0.9097 H         1 <0>         0.1143
     36 H6         -1.9605   -0.1726   -0.8702 H         1 <0>         0.0912
     37 H7         -2.4352   -2.4408    0.0122 H         1 <0>         0.1022
     38 H8         -0.9024   -2.4150   -0.8923 H         1 <0>         0.0645
     39 H9         -1.1828   -2.2188    2.1408 H         1 <0>         0.0946
     40 H10         1.2900   -2.4018    2.1162 H         1 <0>         0.0932
     41 H11         1.2730   -2.3923    0.3363 H         1 <0>         0.0671
     42 H12         1.7647   -0.1336    1.2338 H         1 <0>         0.0926
     43 H13         0.2319   -0.1594    2.1383 H         1 <0>         0.1141
     44 H14        -2.5310   -4.2666    0.1955 H         1 <0>         0.0672
     45 H15        -2.0681   -5.7189    1.1147 H         1 <0>         0.0854
     46 H16        -2.6692   -4.2782    1.9700 H         1 <0>         0.0591
     47 H17         1.1906   -4.2157    0.1252 H         1 <0>         0.0574
     48 H18         0.1859   -5.6824    0.0374 H         1 <0>         0.0879
     49 H19        -0.2770   -4.2301   -0.8818 H         1 <0>         0.0635
     50 H20         0.2598   -3.9563    3.1478 H         1 <0>         0.4002
     51 H21         1.7136   -6.0362    4.0550 H         1 <0>         0.1269
     52 H22         0.1078   -6.0622    4.8225 H         1 <0>         0.1279
     53 H23         1.6363   -0.1286   -1.2138 H         1 <0>         0.4276
     54 H24        -1.0434   -0.3685   -2.3890 H         1 <0>         0.1420
     55 H25        -0.0356    1.0987   -2.3907 H         1 <0>         0.1497
     56 H26         1.7419   -0.1822   -3.6202 H         1 <0>         0.1340
     57 H27        -0.9905   -0.2498   -4.9760 H         1 <0>         0.0769
     58 H28         0.0137    1.2092   -4.7988 H         1 <0>         0.0812
     59 H29        -1.3428    1.2616   -6.3874 H         1 <0>         0.1238
     60 H30        -2.1800    2.1010   -8.5417 H         1 <0>         0.1311
     61 H31        -1.0243    1.5464  -10.6313 H         1 <0>         0.1259
     62 H32         2.8065   -1.4054   -8.0427 H         1 <0>         0.1483
     63 H33         3.1391   -1.3209  -10.6249 H         1 <0>         0.1755
     64 H34        -0.2911   -2.2504   -3.7567 H         1 <0>         0.3889
     65 H35         0.7033   -1.4867   -1.2121 H         1 <0>         0.4288
@<TRIPOS>BOND
     1    1    2 1
     2    1   32 1
     3    1   33 1
     4    1   34 1
     5    2    7 1
     6    2    3 1
     7    2   16 1
     8    3    4 1
     9    3   35 1
    10    3   36 1
    11    4    5 1
    12    4   37 1
    13    4   38 1
    14    5    6 1
    15    5    8 1
    16    5   39 1
    17    6    7 1
    18    6   40 1
    19    6   41 1
    20    7   42 1
    21    7   43 1
    22    8    9 1
    23    8   10 1
    24    8   11 1
    25    9   44 1
    26    9   45 1
    27    9   46 1
    28   10   47 1
    29   10   48 1
    30   10   49 1
    31   11   12 am
    32   11   50 1
    33   12   13 2
    34   12   14 1
    35   14   15 1
    36   14   51 1
    37   14   52 1
    38   16   17 1
    39   16   53 1
    40   16   65 1
    41   17   18 1
    42   17   54 1
    43   17   55 1
    44   18   19 1
    45   18   31 1
    46   18   56 1
    47   19   20 1
    48   19   57 1
    49   19   58 1
    50   20   21 1
    51   21   26 ar
    52   21   22 ar
    53   22   23 ar
    54   22   59 1
    55   23   24 ar
    56   23   60 1
    57   24   25 ar
    58   24   61 1
    59   25   29 1
    60   25   26 ar
    61   26   27 1
    62   27   28 2
    63   27   62 1
    64   28   29 1
    65   28   63 1
    66   29   30 1
    67   31   64 1
@<TRIPOS>MOLECULE
CHEMBL157881__1
   65    67     0     0     0
SMALL
USER_CHARGES

@<TRIPOS>ATOM
      1 C1         -0.0187    1.5258    0.0104 C.3       1 <0>        -0.1775
      2 C2          0.0021   -0.0041    0.0020 C.3       1 <0>         0.0596
      3 C3         -1.4333   -0.5336    0.0129 C.3       1 <0>        -0.1369
      4 C4         -1.4126   -2.0635    0.0045 C.3       1 <0>        -0.1341
      5 C5         -0.6726   -2.5703    1.2440 C.3       1 <0>        -0.0954
      6 C6          0.7628   -2.0407    1.2331 C.3       1 <0>        -0.1374
      7 C7          0.7421   -0.5109    1.2415 C.3       1 <0>        -0.1349
      8 C8         -0.6518   -4.1002    1.2356 C.3       1 <0>         0.1831
      9 C9         -2.0829   -4.6290    1.1207 C.3       1 <0>        -0.1730
     10 C10         0.1711   -4.5925    0.0434 C.3       1 <0>        -0.1759
     11 N1         -0.0496   -4.5872    2.4791 N.am      1 <0>        -0.7248
     12 C11         0.0746   -5.9119    2.6940 C.2       1 <0>         0.5156
     13 O1         -0.3123   -6.7008    1.8580 O.2       1 <0>        -0.4992
     14 C12         0.6941   -6.4129    3.9732 C.3       1 <0>        -0.1245
     15 Br1         0.7207   -8.3787    3.9624 Br        1 <0>        -0.0894
     16 N2          0.6897   -0.4778   -1.2066 N.4       1 <0>        -0.4990
     17 C13        -0.0208    0.0088   -2.3967 C.3       1 <0>        -0.0534
     18 C14         0.6953   -0.4846   -3.6555 C.3       1 <0>         0.0876
     19 C15        -0.0447    0.0222   -4.8950 C.3       1 <0>         0.0303
     20 O2          0.5543   -0.5330   -6.0676 O.3       1 <0>        -0.2964
     21 C16         0.0124   -0.1810   -7.2629 C.ar      1 <0>         0.1688
     22 C17        -1.0656    0.6819   -7.3106 C.ar      1 <0>        -0.2423
     23 C18        -1.6202    1.0430   -8.5301 C.ar      1 <0>        -0.0618
     24 C19        -1.1082    0.5492   -9.7098 C.ar      1 <0>        -0.1566
     25 C20        -0.0227   -0.3216   -9.6875 C.ar      1 <0>         0.1321
     26 C21         0.5463   -0.6858   -8.4548 C.ar      1 <0>        -0.1319
     27 C22         1.6545   -1.5903   -8.7704 C.2       1 <0>        -0.1882
     28 C23         1.6942   -1.7106  -10.1065 C.2       1 <0>         0.0492
     29 N3          0.6935   -0.9657  -10.6714 N.pl3     1 <0>        -0.5917
     30 H1          0.5215   -0.8943  -11.6234 H         1 <0>         0.4218
     31 O3          2.0359    0.0100   -3.6657 O.3       1 <0>        -0.5424
     32 H2          1.0039    1.9031    0.0027 H         1 <0>         0.0844
     33 H3         -0.5459    1.8868   -0.8726 H         1 <0>         0.0823
     34 H4         -0.5289    1.8773    0.9072 H         1 <0>         0.1077
     35 H5         -1.9435   -0.1821    0.9097 H         1 <0>         0.1145
     36 H6         -1.9605   -0.1726   -0.8702 H         1 <0>         0.0919
     37 H7         -2.4352   -2.4408    0.0122 H         1 <0>         0.1028
     38 H8         -0.9024   -2.4150   -0.8923 H         1 <0>         0.0631
     39 H9         -1.1828   -2.2188    2.1408 H         1 <0>         0.0953
     40 H10         1.2900   -2.4018    2.1162 H         1 <0>         0.0934
     41 H11         1.2730   -2.3923    0.3363 H         1 <0>         0.0662
     42 H12         1.7647   -0.1336    1.2338 H         1 <0>         0.0927
     43 H13         0.2319   -0.1594    2.1383 H         1 <0>         0.1142
     44 H14        -2.5310   -4.2666    0.1955 H         1 <0>         0.0674
     45 H15        -2.0681   -5.7189    1.1147 H         1 <0>         0.0854
     46 H16        -2.6692   -4.2782    1.9700 H         1 <0>         0.0594
     47 H17         1.1906   -4.2157    0.1252 H         1 <0>         0.0577
     48 H18         0.1859   -5.6824    0.0374 H         1 <0>         0.0886
     49 H19        -0.2770   -4.2301   -0.8818 H         1 <0>         0.0625
     50 H20         0.2598   -3.9563    3.1478 H         1 <0>         0.4004
     51 H21         1.7136   -6.0362    4.0550 H         1 <0>         0.1270
     52 H22         0.1078   -6.0622    4.8225 H         1 <0>         0.1280
     53 H23         1.6363   -0.1286   -1.2138 H         1 <0>         0.4309
     54 H24        -1.0434   -0.3685   -2.3890 H         1 <0>         0.1482
     55 H25        -0.0356    1.0987   -2.3907 H         1 <0>         0.1437
     56 H26         0.7101   -1.5745   -3.6615 H         1 <0>         0.1336
     57 H27        -1.0905   -0.2806   -4.8430 H         1 <0>         0.0815
     58 H28         0.0171    1.1097   -4.9357 H         1 <0>         0.0770
     59 H29        -1.4788    1.0769   -6.3943 H         1 <0>         0.1237
     60 H30        -2.4627    1.7183   -8.5547 H         1 <0>         0.1311
     61 H31        -1.5496    0.8376  -10.6524 H         1 <0>         0.1259
     62 H32         2.3147   -2.0689   -8.0623 H         1 <0>         0.1484
     63 H33         2.4039   -2.3128  -10.6542 H         1 <0>         0.1755
     64 H34         2.0992    0.9749   -3.6611 H         1 <0>         0.3892
     65 H35         0.7033   -1.4867   -1.2121 H         1 <0>         0.4250
@<TRIPOS>BOND
     1    1    2 1
     2    1   32 1
     3    1   33 1
     4    1   34 1
     5    2    7 1
     6    2    3 1
     7    2   16 1
     8    3    4 1
     9    3   35 1
    10    3   36 1
    11    4    5 1
    12    4   37 1
    13    4   38 1
    14    5    6 1
    15    5    8 1
    16    5   39 1
    17    6    7 1
    18    6   40 1
    19    6   41 1
    20    7   42 1
    21    7   43 1
    22    8    9 1
    23    8   10 1
    24    8   11 1
    25    9   44 1
    26    9   45 1
    27    9   46 1
    28   10   47 1
    29   10   48 1
    30   10   49 1
    31   11   12 am
    32   11   50 1
    33   12   13 2
    34   12   14 1
    35   14   15 1
    36   14   51 1
    37   14   52 1
    38   16   17 1
    39   16   53 1
    40   16   65 1
    41   17   18 1
    42   17   54 1
    43   17   55 1
    44   18   19 1
    45   18   31 1
    46   18   56 1
    47   19   20 1
    48   19   57 1
    49   19   58 1
    50   20   21 1
    51   21   26 ar
    52   21   22 ar
    53   22   23 ar
    54   22   59 1
    55   23   24 ar
    56   23   60 1
    57   24   25 ar
    58   24   61 1
    59   25   29 1
    60   25   26 ar
    61   26   27 1
    62   27   28 2
    63   27   62 1
    64   28   29 1
    65   28   63 1
    66   29   30 1
    67   31   64 1
@<TRIPOS>MOLECULE
CHEMBL561818
   59    61     0     0     0
SMALL
USER_CHARGES

@<TRIPOS>ATOM
      1 C1          8.6235    0.9872   -2.7241 C.ar      1 <0>        -0.1701
      2 C2          7.5186    1.0884   -1.8923 C.ar      1 <0>        -0.0600
      3 C3          6.9775    2.3441   -1.6637 C.ar      1 <0>        -0.1305
      4 C4          7.5533    3.4458   -2.2683 C.ar      1 <0>         0.1162
      5 N1          8.6037    3.3119   -3.0540 N.ar      1 <0>        -0.4817
      6 C5          9.1448    2.1333   -3.2935 C.ar      1 <0>         0.1042
      7 C6          5.7766    2.5059   -0.7679 C.3       1 <0>        -0.0952
      8 C7          6.2342    2.7257    0.6510 C.2       1 <0>         0.5180
      9 O1          7.4190    2.7486    0.9094 O.2       1 <0>        -0.5071
     10 N2          5.3269    2.8968    1.6328 N.am      1 <0>        -0.6791
     11 C8          5.7475    3.0040    2.9631 C.ar      1 <0>         0.1654
     12 C9          4.9726    2.4678    3.9832 C.ar      1 <0>        -0.1424
     13 C10         5.3904    2.5753    5.2952 C.ar      1 <0>        -0.0877
     14 C11         6.5789    3.2161    5.5936 C.ar      1 <0>        -0.1273
     15 C12         7.3526    3.7514    4.5801 C.ar      1 <0>        -0.0879
     16 C13         6.9434    3.6418    3.2656 C.ar      1 <0>        -0.1184
     17 C14         7.0318    3.3316    7.0263 C.3       1 <0>        -0.0974
     18 C15         7.8908    2.1185    7.3890 C.3       1 <0>        -0.0075
     19 N3          8.3322    2.2311    8.7856 N.4       1 <0>        -0.5036
     20 C16         9.1569    1.0664    9.1338 C.3       1 <0>        -0.0419
     21 C17         9.6167    1.1837   10.5884 C.3       1 <0>         0.0858
     22 H1          8.7459    1.2210   11.2429 H         1 <0>         0.1363
     23 C18        10.4757   -0.0293   10.9511 C.3       1 <0>         0.0288
     24 O2         10.8084    0.0208   12.3400 O.3       1 <0>        -0.3011
     25 C19        11.5739   -0.9915   12.8283 C.ar      1 <0>         0.1087
     26 C20        11.9996   -2.0076   11.9857 C.ar      1 <0>        -0.1914
     27 C21        12.7772   -3.0359   12.4818 C.ar      1 <0>        -0.1061
     28 C22        13.1326   -3.0520   13.8224 C.ar      1 <0>         0.0804
     29 C23        12.7075   -2.0355   14.6648 C.ar      1 <0>        -0.1026
     30 C24        11.9336   -1.0049   14.1678 C.ar      1 <0>        -0.1259
     31 O3         13.8973   -4.0648   14.3109 O.3       1 <0>        -0.4957
     32 O4         10.3856    2.3773   10.7502 O.3       1 <0>        -0.5434
     33 H2          9.0736    0.0254   -2.9208 H         1 <0>         0.1381
     34 H3          7.0896    0.2097   -1.4337 H         1 <0>         0.1319
     35 H4          7.1378    4.4275   -2.0954 H         1 <0>         0.1526
     36 H5         10.0055    2.0630   -3.9422 H         1 <0>         0.1589
     37 H6          5.1904    3.3637   -1.0976 H         1 <0>         0.1147
     38 H7          5.1631    1.6063   -0.8166 H         1 <0>         0.1125
     39 H8          4.3824    2.9455    1.4173 H         1 <0>         0.4171
     40 H9          4.0440    1.9675    3.7509 H         1 <0>         0.1328
     41 H10         4.7881    2.1588    6.0890 H         1 <0>         0.1288
     42 H11         8.2802    4.2516    4.8164 H         1 <0>         0.1277
     43 H12         7.5506    4.0557    2.4741 H         1 <0>         0.1450
     44 H13         7.6183    4.2420    7.1496 H         1 <0>         0.0964
     45 H14         6.1609    3.3689    7.6807 H         1 <0>         0.0965
     46 H15         7.3043    1.2081    7.2656 H         1 <0>         0.1342
     47 H16         8.7616    2.0812    6.7345 H         1 <0>         0.1338
     48 H17         8.8751    3.0739    8.8998 H         1 <0>         0.4336
     49 H18         8.5705    0.1560    9.0105 H         1 <0>         0.1471
     50 H19        10.0278    1.0291    8.4794 H         1 <0>         0.1399
     51 H20         9.9196   -0.9435   10.7435 H         1 <0>         0.0820
     52 H21        11.3900   -0.0176   10.3579 H         1 <0>         0.0769
     53 H22        11.7229   -1.9950   10.9419 H         1 <0>         0.1284
     54 H23        13.1082   -3.8275   11.8258 H         1 <0>         0.1352
     55 H24        12.9839   -2.0482   15.7087 H         1 <0>         0.1418
     56 H25        11.6057   -0.2114   14.8229 H         1 <0>         0.1388
     57 H26        14.8485   -3.8971   14.2643 H         1 <0>         0.3940
     58 H27        11.1778    2.4129   10.1967 H         1 <0>         0.3903
     59 H28         7.5261    2.2657    9.3914 H         1 <0>         0.4309
@<TRIPOS>BOND
     1    1    6 ar
     2    1    2 ar
     3    1   33 1
     4    2    3 ar
     5    2   34 1
     6    3    4 ar
     7    3    7 1
     8    4    5 ar
     9    4   35 1
    10    5    6 ar
    11    6   36 1
    12    7    8 1
    13    7   37 1
    14    7   38 1
    15    8    9 2
    16    8   10 am
    17   10   11 1
    18   10   39 1
    19   11   16 ar
    20   11   12 ar
    21   12   13 ar
    22   12   40 1
    23   13   14 ar
    24   13   41 1
    25   14   15 ar
    26   14   17 1
    27   15   16 ar
    28   15   42 1
    29   16   43 1
    30   17   18 1
    31   17   44 1
    32   17   45 1
    33   18   19 1
    34   18   46 1
    35   18   47 1
    36   19   20 1
    37   19   48 1
    38   19   59 1
    39   20   21 1
    40   20   49 1
    41   20   50 1
    42   21   22 1
    43   21   23 1
    44   21   32 1
    45   23   24 1
    46   23   51 1
    47   23   52 1
    48   24   25 1
    49   25   30 ar
    50   25   26 ar
    51   26   27 ar
    52   26   53 1
    53   27   28 ar
    54   27   54 1
    55   28   29 ar
    56   28   31 1
    57   29   30 ar
    58   29   55 1
    59   30   56 1
    60   31   57 1
    61   32   58 1
@<TRIPOS>MOLECULE
CHEMBL1221541
   47    49     0     0     0
SMALL
USER_CHARGES

@<TRIPOS>ATOM
      1 C1         -0.0187    1.5258    0.0104 C.3       1 <0>        -0.1846
      2 C2          0.0021   -0.0041    0.0020 C.3       1 <0>         0.0259
      3 H1         -1.0205   -0.3814    0.0098 H         1 <0>         0.1379
      4 C3          0.7421   -0.5109    1.2415 C.3       1 <0>        -0.1067
      5 C4          0.7628   -2.0407    1.2331 C.3       1 <0>        -0.1326
      6 C5          1.5028   -2.5476    2.4727 C.3       1 <0>        -0.1186
      7 C6          0.7867   -2.0542    3.7315 C.3       1 <0>        -0.1258
      8 C7          0.7659   -0.5243    3.7399 C.3       1 <0>        -0.1214
      9 C8          0.0259   -0.0175    2.5003 C.3       1 <0>        -0.1126
     10 N1          0.6897   -0.4778   -1.2066 N.4       1 <0>        -0.5043
     11 C9         -0.0856   -0.0931   -2.3936 C.3       1 <0>        -0.0484
     12 C10         0.6305   -0.5866   -3.6524 C.3       1 <0>         0.1630
     13 H2          0.7239   -1.6719   -3.6155 H         1 <0>         0.1146
     14 C11        -0.1648   -0.1919   -4.8701 C.ar      1 <0>        -0.2333
     15 C12         0.1454    0.9693   -5.5566 C.ar      1 <0>        -0.0378
     16 C13        -0.5980    1.3121   -6.6725 C.ar      1 <0>        -0.2397
     17 C14        -1.6380    0.5187   -7.1094 C.ar      1 <0>         0.3003
     18 C15        -1.9745   -0.6681   -6.4291 C.ar      1 <0>        -0.0293
     19 C16        -1.1977   -0.9865   -5.3072 C.ar      1 <0>        -0.0472
     20 S1         -1.9059   -2.5157   -4.7451 S.3       1 <0>        -0.1200
     21 C17        -3.1710   -2.6740   -5.9950 C.2       1 <0>         0.5379
     22 O1         -3.9998   -3.5547   -6.1333 O.2       1 <0>        -0.4758
     23 N2         -2.9844   -1.5664   -6.7396 N.am      1 <0>        -0.6197
     24 H3         -3.5541   -1.4021   -7.5073 H         1 <0>         0.4154
     25 O2         -2.3473    0.8866   -8.2095 O.3       1 <0>        -0.6864
     26 O3          1.9312    0.0013   -3.7219 O.3       1 <0>        -0.5545
     27 H4          1.0039    1.9031    0.0027 H         1 <0>         0.0810
     28 H5         -0.5459    1.8868   -0.8726 H         1 <0>         0.0842
     29 H6         -0.5289    1.8773    0.9072 H         1 <0>         0.1052
     30 H7          1.7647   -0.1336    1.2338 H         1 <0>         0.0944
     31 H8         -0.2598   -2.4180    1.2409 H         1 <0>         0.0794
     32 H9          1.2730   -2.3923    0.3363 H         1 <0>         0.0590
     33 H10         1.5176   -3.6375    2.4667 H         1 <0>         0.0720
     34 H11         2.5254   -2.1703    2.4649 H         1 <0>         0.0669
     35 H12        -0.2359   -2.4314    3.7392 H         1 <0>         0.0658
     36 H13         1.3139   -2.4152    4.6145 H         1 <0>         0.0687
     37 H14         0.2557   -0.1728    4.6367 H         1 <0>         0.0715
     38 H15         1.7885   -0.1470    3.7321 H         1 <0>         0.0659
     39 H16         0.0111    1.0724    2.5063 H         1 <0>         0.0758
     40 H17        -0.9967   -0.3948    2.5081 H         1 <0>         0.0734
     41 H18         1.6080   -0.0627   -1.2556 H         1 <0>         0.4258
     42 H19        -1.0777   -0.5415   -2.3406 H         1 <0>         0.1399
     43 H20        -0.1790    0.9922   -2.4305 H         1 <0>         0.1375
     44 H21         0.9570    1.6002   -5.2254 H         1 <0>         0.1129
     45 H22        -0.3595    2.2175   -7.2109 H         1 <0>         0.1174
     46 H23         1.9246    0.9676   -3.7575 H         1 <0>         0.3833
     47 H24         0.7761   -1.4825   -1.1724 H         1 <0>         0.4238
@<TRIPOS>BOND
     1    1    2 1
     2    1   27 1
     3    1   28 1
     4    1   29 1
     5    2    3 1
     6    2    4 1
     7    2   10 1
     8    4    9 1
     9    4    5 1
    10    4   30 1
    11    5    6 1
    12    5   31 1
    13    5   32 1
    14    6    7 1
    15    6   33 1
    16    6   34 1
    17    7    8 1
    18    7   35 1
    19    7   36 1
    20    8    9 1
    21    8   37 1
    22    8   38 1
    23    9   39 1
    24    9   40 1
    25   10   11 1
    26   10   41 1
    27   10   47 1
    28   11   12 1
    29   11   42 1
    30   11   43 1
    31   12   13 1
    32   12   14 1
    33   12   26 1
    34   14   19 ar
    35   14   15 ar
    36   15   16 ar
    37   15   44 1
    38   16   17 ar
    39   16   45 1
    40   17   18 ar
    41   17   25 1
    42   18   23 1
    43   18   19 ar
    44   19   20 1
    45   20   21 1
    46   21   22 2
    47   21   23 am
    48   23   24 1
    49   26   46 1
@<TRIPOS>MOLECULE
CHEMBL1221543
   49    50     0     0     0
SMALL
USER_CHARGES

@<TRIPOS>ATOM
      1 C1          0.5191   -1.8311   -2.9408 C.3       1 <0>        -0.1868
      2 C2         -0.3099   -0.7924   -2.1826 C.3       1 <0>        -0.0881
      3 C3         -0.3684    0.5038   -2.9933 C.3       1 <0>        -0.1669
      4 C4         -1.7280   -1.3267   -1.9720 C.3       1 <0>        -0.1420
      5 C5          0.3378   -0.5157   -0.8244 C.3       1 <0>        -0.1273
      6 C6          1.6475    0.2480   -1.0301 C.3       1 <0>         0.0587
      7 C7          1.3460    1.7360   -1.2193 C.3       1 <0>        -0.1987
      8 C8          2.5447    0.0612    0.1951 C.3       1 <0>        -0.1766
      9 N1          2.3333   -0.2680   -2.2223 N.4       1 <0>        -0.5105
     10 C9          3.6824    0.3081   -2.2991 C.3       1 <0>        -0.0603
     11 C10         4.3965   -0.2294   -3.5409 C.3       1 <0>         0.1635
     12 H1          3.8326    0.0459   -4.4321 H         1 <0>         0.1122
     13 C11         5.7805    0.3617   -3.6197 C.ar      1 <0>        -0.2314
     14 C12         6.8634   -0.3333   -3.1094 C.ar      1 <0>        -0.0380
     15 C13         8.1255    0.2284   -3.1930 C.ar      1 <0>        -0.2394
     16 C14         8.3204    1.4638   -3.7739 C.ar      1 <0>         0.3000
     17 C15         7.2359    2.1922   -4.3009 C.ar      1 <0>        -0.0293
     18 C16         5.9739    1.5910   -4.2037 C.ar      1 <0>        -0.0472
     19 S1          4.8984    2.7812   -4.9669 S.3       1 <0>        -0.1206
     20 C17         6.1362    3.9990   -5.3824 C.2       1 <0>         0.5377
     21 O1          5.9934    5.0711   -5.9409 O.2       1 <0>        -0.4762
     22 N2          7.2668    3.4370   -4.9113 N.am      1 <0>        -0.6193
     23 H2          8.1121    3.9022   -5.0109 H         1 <0>         0.4153
     24 O2          9.5745    1.9854   -3.8384 O.3       1 <0>        -0.6872
     25 O3          4.4906   -1.6528   -3.4575 O.3       1 <0>        -0.5547
     26 H3          1.2882   -1.3260   -3.5252 H         1 <0>         0.0523
     27 H4          0.9902   -2.5095   -2.2295 H         1 <0>         0.0744
     28 H5         -0.1305   -2.3978   -3.6079 H         1 <0>         0.0905
     29 H6         -1.0538    0.3775   -3.8315 H         1 <0>         0.0800
     30 H7         -0.7196    1.3154   -2.3560 H         1 <0>         0.0843
     31 H8          0.6263    0.7420   -3.3700 H         1 <0>         0.0456
     32 H9         -1.6863   -2.2502   -1.3944 H         1 <0>         0.0641
     33 H10        -2.3186   -0.5867   -1.4319 H         1 <0>         0.0644
     34 H11        -2.1894   -1.5239   -2.9396 H         1 <0>         0.0670
     35 H12        -0.3392    0.0819   -0.2140 H         1 <0>         0.1086
     36 H13         0.5432   -1.4602   -0.3206 H         1 <0>         0.0927
     37 H14         0.7005    2.0815   -0.4117 H         1 <0>         0.1012
     38 H15         2.2784    2.3003   -1.2058 H         1 <0>         0.0831
     39 H16         0.8441    1.8864   -2.1751 H         1 <0>         0.0974
     40 H17         2.8507   -0.9826    0.2657 H         1 <0>         0.0791
     41 H18         3.4276    0.6930    0.0987 H         1 <0>         0.0869
     42 H19         1.9948    0.3402    1.0940 H         1 <0>         0.1014
     43 H20         2.3997   -1.2731   -2.1635 H         1 <0>         0.4260
     44 H21         3.6106    1.3939   -2.3627 H         1 <0>         0.1395
     45 H22         4.2463    0.0328   -1.4079 H         1 <0>         0.1378
     46 H23         6.7250   -1.3016   -2.6515 H         1 <0>         0.1129
     47 H24         8.9730   -0.3104   -2.7958 H         1 <0>         0.1173
     48 H25         4.9807   -1.9702   -2.6867 H         1 <0>         0.3830
     49 H26         1.8112   -0.0132   -3.0473 H         1 <0>         0.4235
@<TRIPOS>BOND
     1    1    2 1
     2    1   26 1
     3    1   27 1
     4    1   28 1
     5    2    3 1
     6    2    4 1
     7    2    5 1
     8    3   29 1
     9    3   30 1
    10    3   31 1
    11    4   32 1
    12    4   33 1
    13    4   34 1
    14    5    6 1
    15    5   35 1
    16    5   36 1
    17    6    7 1
    18    6    8 1
    19    6    9 1
    20    7   37 1
    21    7   38 1
    22    7   39 1
    23    8   40 1
    24    8   41 1
    25    8   42 1
    26    9   10 1
    27    9   43 1
    28    9   49 1
    29   10   11 1
    30   10   44 1
    31   10   45 1
    32   11   12 1
    33   11   13 1
    34   11   25 1
    35   13   18 ar
    36   13   14 ar
    37   14   15 ar
    38   14   46 1
    39   15   16 ar
    40   15   47 1
    41   16   17 ar
    42   16   24 1
    43   17   22 1
    44   17   18 ar
    45   18   19 1
    46   19   20 1
    47   20   21 2
    48   20   22 am
    49   22   23 1
    50   25   48 1
@<TRIPOS>MOLECULE
CHEMBL104193
   74    77     0     0     0
SMALL
USER_CHARGES

@<TRIPOS>ATOM
      1 C1         21.9233   -7.2994   13.6135 C.ar      1 <0>        -0.1171
      2 C2         21.4993   -8.2153   12.6689 C.ar      1 <0>        -0.1180
      3 C3         20.8815   -7.7791   11.5118 C.ar      1 <0>        -0.1144
      4 C4         20.6873   -6.4270   11.2994 C.ar      1 <0>        -0.0890
      5 C5         21.1105   -5.5112   12.2444 C.ar      1 <0>        -0.1125
      6 C6         21.7295   -5.9473   13.4009 C.ar      1 <0>        -0.1160
      7 C7         20.0147   -5.9514   10.0375 C.3       1 <0>        -0.0899
      8 C8         18.5036   -5.8722   10.2637 C.3       1 <0>         0.1411
      9 N1         17.8498   -5.4099    9.0369 N.am      1 <0>        -0.7376
     10 C9         16.5105   -5.2633    9.0012 C.2       1 <0>         0.7033
     11 O1         15.8449   -5.5149    9.9872 O.2       1 <0>        -0.5643
     12 N2         15.9090   -4.8380    7.8726 N.am      1 <0>        -0.6899
     13 C10        14.5125   -4.7792    7.8035 C.ar      1 <0>         0.2290
     14 C11        13.8616   -5.0767    6.6134 C.ar      1 <0>        -0.1712
     15 C12        12.4832   -5.0182    6.5486 C.ar      1 <0>         0.0028
     16 C13        11.7514   -4.6638    7.6671 C.ar      1 <0>        -0.6960
     17 C14        12.3966   -4.3665    8.8534 C.ar      1 <0>         0.0055
     18 C15        13.7744   -4.4287    8.9264 C.ar      1 <0>        -0.1395
     19 S1          9.9931   -4.5903    7.5802 S.o2      1 <0>         2.6897
     20 O2          9.5801   -3.6143    8.5267 O.2       1 <0>        -0.9400
     21 O3          9.6578   -4.5047    6.2020 O.2       1 <0>        -0.9468
     22 N3          9.4150   -6.0459    8.1184 N.pl3     1 <0>        -1.0599
     23 C16         9.7170   -7.2180    7.4215 C.ar      1 <0>         0.1681
     24 C17         9.6164   -7.2499    6.0364 C.ar      1 <0>        -0.1512
     25 C18         9.9162   -8.4105    5.3504 C.ar      1 <0>        -0.0830
     26 C19        10.3157   -9.5400    6.0408 C.ar      1 <0>        -0.1214
     27 C20        10.4169   -9.5117    7.4196 C.ar      1 <0>        -0.0879
     28 C21        10.1241   -8.3529    8.1114 C.ar      1 <0>        -0.1256
     29 C22        10.6411  -10.8049    5.2889 C.3       1 <0>        -0.0990
     30 C23        12.1270  -10.8136    4.9244 C.3       1 <0>        -0.0086
     31 N4         12.4441  -12.0466    4.1914 N.4       1 <0>        -0.5056
     32 C24        13.8708  -12.0549    3.8414 C.3       1 <0>        -0.0426
     33 C25        14.2011  -13.3391    3.0780 C.3       1 <0>         0.1414
     34 H1         13.6034  -13.3846    2.1677 H         1 <0>         0.1342
     35 C26        15.6647  -13.3477    2.7190 C.ar      1 <0>        -0.2001
     36 C27        16.0861  -12.8917    1.4791 C.ar      1 <0>        -0.0548
     37 C28        17.4422  -12.9182    1.1923 C.ar      1 <0>        -0.1641
     38 C29        18.3229  -13.3949    2.1450 C.ar      1 <0>         0.1222
     39 N5         17.8862  -13.8211    3.3139 N.ar      1 <0>        -0.4749
     40 C30        16.6043  -13.8047    3.6233 C.ar      1 <0>         0.1171
     41 O4         13.9054  -14.4707    3.8990 O.3       1 <0>        -0.5457
     42 H2         22.4019   -7.6405   14.5196 H         1 <0>         0.1243
     43 H3         21.6510   -9.2716   12.8348 H         1 <0>         0.1236
     44 H4         20.5509   -8.4946   10.7734 H         1 <0>         0.1202
     45 H5         20.9591   -4.4548   12.0784 H         1 <0>         0.1228
     46 H6         22.0605   -5.2318   14.1391 H         1 <0>         0.1251
     47 H7         20.3947   -4.9647    9.7730 H         1 <0>         0.0816
     48 H8         20.2248   -6.6506    9.2281 H         1 <0>         0.0794
     49 H9         18.1236   -6.8590   10.5282 H         1 <0>         0.0720
     50 H10        18.2936   -5.1730   11.0731 H         1 <0>         0.0742
     51 H11        18.3808   -5.2092    8.2504 H         1 <0>         0.4001
     52 H12        16.4440   -4.5726    7.1083 H         1 <0>         0.4123
     53 H13        14.4327   -5.3532    5.7395 H         1 <0>         0.1349
     54 H14        11.9765   -5.2491    5.6232 H         1 <0>         0.1437
     55 H15        11.8222   -4.0897    9.7252 H         1 <0>         0.1444
     56 H16        14.2775   -4.2011    9.8545 H         1 <0>         0.1537
     57 H17         8.8667   -6.0844    8.9176 H         1 <0>         0.4323
     58 H18         9.3037   -6.3683    5.4966 H         1 <0>         0.1640
     59 H19         9.8381   -8.4359    4.2735 H         1 <0>         0.1324
     60 H20        10.7292  -10.3957    7.9558 H         1 <0>         0.1296
     61 H21        10.2077   -8.3301    9.1879 H         1 <0>         0.1358
     62 H22        10.4155  -11.6681    5.9151 H         1 <0>         0.0972
     63 H23        10.0433  -10.8504    4.3785 H         1 <0>         0.0980
     64 H24        12.3525   -9.9504    4.2981 H         1 <0>         0.1344
     65 H25        12.7247  -10.7681    5.8347 H         1 <0>         0.1332
     66 H26        12.2353  -12.8456    4.7711 H         1 <0>         0.4328
     67 H27        14.0963  -11.1918    3.2152 H         1 <0>         0.1445
     68 H28        14.4685  -12.0095    4.7518 H         1 <0>         0.1371
     69 H29        15.3748  -12.5249    0.7539 H         1 <0>         0.1413
     70 H30        17.8058  -12.5711    0.2364 H         1 <0>         0.1472
     71 H31        19.3809  -13.4189    1.9294 H         1 <0>         0.1670
     72 H32        16.2846  -14.1571    4.5929 H         1 <0>         0.1528
     73 H33        14.4025  -14.4958    4.7281 H         1 <0>         0.3899
     74 H34        11.8908  -12.0887    3.3487 H         1 <0>         0.4301
@<TRIPOS>BOND
     1    1    6 ar
     2    1    2 ar
     3    1   42 1
     4    2    3 ar
     5    2   43 1
     6    3    4 ar
     7    3   44 1
     8    4    5 ar
     9    4    7 1
    10    5    6 ar
    11    5   45 1
    12    6   46 1
    13    7    8 1
    14    7   47 1
    15    7   48 1
    16    8    9 1
    17    8   49 1
    18    8   50 1
    19    9   10 am
    20    9   51 1
    21   10   11 2
    22   10   12 am
    23   12   13 1
    24   12   52 1
    25   13   18 ar
    26   13   14 ar
    27   14   15 ar
    28   14   53 1
    29   15   16 ar
    30   15   54 1
    31   16   17 ar
    32   16   19 1
    33   17   18 ar
    34   17   55 1
    35   18   56 1
    36   19   20 2
    37   19   21 2
    38   19   22 1
    39   22   23 1
    40   22   57 1
    41   23   28 ar
    42   23   24 ar
    43   24   25 ar
    44   24   58 1
    45   25   26 ar
    46   25   59 1
    47   26   27 ar
    48   26   29 1
    49   27   28 ar
    50   27   60 1
    51   28   61 1
    52   29   30 1
    53   29   62 1
    54   29   63 1
    55   30   31 1
    56   30   64 1
    57   30   65 1
    58   31   32 1
    59   31   66 1
    60   31   74 1
    61   32   33 1
    62   32   67 1
    63   32   68 1
    64   33   34 1
    65   33   35 1
    66   33   41 1
    67   35   40 ar
    68   35   36 ar
    69   36   37 ar
    70   36   69 1
    71   37   38 ar
    72   37   70 1
    73   38   39 ar
    74   38   71 1
    75   39   40 ar
    76   40   72 1
    77   41   73 1
@<TRIPOS>MOLECULE
CHEMBL723
   57    60     0     0     0
SMALL
USER_CHARGES

@<TRIPOS>ATOM
      1 C1         -0.0173    1.4248    0.0099 C.3       1 <0>         0.0233
      2 O1          0.0021   -0.0041    0.0020 O.3       1 <0>        -0.3130
      3 C2          0.6062   -0.6075   -1.0564 C.ar      1 <0>         0.1098
      4 C3          1.1729    0.1590   -2.0621 C.ar      1 <0>        -0.1705
      5 C4          1.7870   -0.4560   -3.1371 C.ar      1 <0>        -0.0978
      6 C5          1.8372   -1.8356   -3.2121 C.ar      1 <0>        -0.1160
      7 C6          1.2734   -2.6062   -2.2124 C.ar      1 <0>        -0.1648
      8 C7          0.6617   -1.9961   -1.1290 C.ar      1 <0>         0.0803
      9 O2          0.1119   -2.7526   -0.1417 O.3       1 <0>        -0.3191
     10 C8          0.2064   -4.1715   -0.2827 C.3       1 <0>         0.0232
     11 C9         -0.4630   -4.8487    0.9148 C.3       1 <0>         0.0020
     12 N1         -1.9017   -4.5521    0.9040 N.4       1 <0>        -0.5050
     13 C10        -2.5444   -5.2023    2.0538 C.3       1 <0>        -0.0416
     14 C11        -4.0428   -4.8933    2.0425 C.3       1 <0>         0.0851
     15 C12        -4.6910   -5.4650    3.3051 C.3       1 <0>         0.0288
     16 O3         -6.0655   -5.0771    3.3523 O.3       1 <0>        -0.2955
     17 C13        -6.7910   -5.5055    4.4180 C.ar      1 <0>         0.1791
     18 C14        -6.1946   -6.2769    5.4003 C.ar      1 <0>        -0.2456
     19 C15        -6.9338   -6.7140    6.4870 C.ar      1 <0>        -0.0443
     20 C16        -8.2684   -6.3887    6.6050 C.ar      1 <0>        -0.1712
     21 C17        -8.8884   -5.6144    5.6285 C.ar      1 <0>         0.1819
     22 C18        -8.1411   -5.1648    4.5306 C.ar      1 <0>        -0.1298
     23 C19        -9.0617   -4.3762    3.6919 C.ar      1 <0>        -0.0923
     24 C20        -8.9130   -3.6898    2.4889 C.ar      1 <0>        -0.0604
     25 C21        -9.9908   -3.0295    1.9395 C.ar      1 <0>        -0.1468
     26 C22       -11.2205   -3.0461    2.5799 C.ar      1 <0>        -0.0826
     27 C23       -11.3814   -3.7209    3.7708 C.ar      1 <0>        -0.1382
     28 C24       -10.3053   -4.3943    4.3408 C.ar      1 <0>         0.1336
     29 N2        -10.1844   -5.1495    5.4941 N.pl3     1 <0>        -0.6121
     30 H1        -10.9022   -5.3180    6.1244 H         1 <0>         0.4226
     31 O4         -4.6428   -5.4861    0.8889 O.3       1 <0>        -0.5420
     32 H2          1.0053    1.8021    0.0021 H         1 <0>         0.0601
     33 H3         -0.5445    1.7859   -0.8732 H         1 <0>         0.0597
     34 H4         -0.5275    1.7763    0.9067 H         1 <0>         0.1055
     35 H5          1.1344    1.2368   -2.0063 H         1 <0>         0.1417
     36 H6          2.2283    0.1425   -3.9203 H         1 <0>         0.1351
     37 H7          2.3175   -2.3124   -4.0537 H         1 <0>         0.1342
     38 H8          1.3136   -3.6837   -2.2735 H         1 <0>         0.1348
     39 H9         -0.2940   -4.4795   -1.2008 H         1 <0>         0.0873
     40 H10         1.2558   -4.4633   -0.3254 H         1 <0>         0.1106
     41 H11        -0.3138   -5.9267    0.8528 H         1 <0>         0.1521
     42 H12        -0.0216   -4.4734    1.8380 H         1 <0>         0.1446
     43 H13        -2.0398   -3.5542    0.9614 H         1 <0>         0.4387
     44 H14        -2.3952   -6.2803    1.9918 H         1 <0>         0.1414
     45 H15        -2.1030   -4.8270    2.9770 H         1 <0>         0.1478
     46 H16        -4.1910   -3.8138    2.0149 H         1 <0>         0.1355
     47 H17        -4.6207   -6.5526    3.2891 H         1 <0>         0.0785
     48 H18        -4.1745   -5.0804    4.1846 H         1 <0>         0.0831
     49 H19        -5.1500   -6.5390    5.3190 H         1 <0>         0.1279
     50 H20        -6.4604   -7.3155    7.2489 H         1 <0>         0.1352
     51 H21        -8.8343   -6.7358    7.4570 H         1 <0>         0.1305
     52 H22        -7.9561   -3.6747    1.9885 H         1 <0>         0.1254
     53 H23        -9.8771   -2.4969    1.0069 H         1 <0>         0.1275
     54 H24       -12.0593   -2.5255    2.1419 H         1 <0>         0.1319
     55 H25       -12.3433   -3.7273    4.2617 H         1 <0>         0.1270
     56 H26        -4.5494   -6.4477    0.8473 H         1 <0>         0.3897
     57 H27        -2.3103   -4.8995    0.0494 H         1 <0>         0.4329
@<TRIPOS>BOND
     1    1    2 1
     2    1   32 1
     3    1   33 1
     4    1   34 1
     5    2    3 1
     6    3    8 ar
     7    3    4 ar
     8    4    5 ar
     9    4   35 1
    10    5    6 ar
    11    5   36 1
    12    6    7 ar
    13    6   37 1
    14    7    8 ar
    15    7   38 1
    16    8    9 1
    17    9   10 1
    18   10   11 1
    19   10   39 1
    20   10   40 1
    21   11   12 1
    22   11   41 1
    23   11   42 1
    24   12   13 1
    25   12   43 1
    26   12   57 1
    27   13   14 1
    28   13   44 1
    29   13   45 1
    30   14   15 1
    31   14   31 1
    32   14   46 1
    33   15   16 1
    34   15   47 1
    35   15   48 1
    36   16   17 1
    37   17   22 ar
    38   17   18 ar
    39   18   19 ar
    40   18   49 1
    41   19   20 ar
    42   19   50 1
    43   20   21 ar
    44   20   51 1
    45   21   29 1
    46   21   22 ar
    47   22   23 1
    48   23   28 ar
    49   23   24 ar
    50   24   25 ar
    51   24   52 1
    52   25   26 ar
    53   25   53 1
    54   26   27 ar
    55   26   54 1
    56   27   28 ar
    57   27   55 1
    58   28   29 1
    59   29   30 1
    60   31   56 1
@<TRIPOS>MOLECULE
CHEMBL723__1
   56    59     0     0     0
SMALL
USER_CHARGES

@<TRIPOS>ATOM
      1 C1         -0.0173    1.4248    0.0099 C.3       1 <0>         0.0261
      2 O1          0.0021   -0.0041    0.0020 O.3       1 <0>        -0.3075
      3 C2         -1.2011   -0.6379    0.0101 C.ar      1 <0>         0.0978
      4 C3         -2.3743    0.0994    0.0195 C.ar      1 <0>        -0.1734
      5 C4         -3.5965   -0.5465    0.0272 C.ar      1 <0>        -0.1173
      6 C5         -3.6519   -1.9279    0.0261 C.ar      1 <0>        -0.1166
      7 C6         -2.4852   -2.6694    0.0172 C.ar      1 <0>        -0.1726
      8 C7         -1.2569   -2.0283    0.0032 C.ar      1 <0>         0.1043
      9 O2         -0.1083   -2.7563   -0.0116 O.3       1 <0>        -0.3067
     10 C8         -0.2420   -4.1790   -0.0180 C.3       1 <0>         0.0577
     11 C9          1.1464   -4.8217   -0.0346 C.3       1 <0>         0.0633
     12 N1          1.8485   -4.5029    1.2157 N.3       1 <0>        -0.6781
     13 C10         3.1884   -5.1049    1.2353 C.3       1 <0>         0.0300
     14 C11         3.8870   -4.7517    2.5499 C.3       1 <0>         0.1148
     15 C12         5.3255   -5.2722    2.5188 C.3       1 <0>         0.0265
     16 O3          6.0130   -4.8424    3.6955 O.3       1 <0>        -0.2954
     17 C13         7.3109   -5.2223    3.8249 C.ar      1 <0>         0.1902
     18 C14         7.9131   -5.9865    2.8406 C.ar      1 <0>        -0.2492
     19 C15         9.2364   -6.3742    2.9721 C.ar      1 <0>        -0.0417
     20 C16         9.9690   -6.0064    4.0807 C.ar      1 <0>        -0.1828
     21 C17         9.3830   -5.2384    5.0828 C.ar      1 <0>         0.1796
     22 C18         8.0457   -4.8388    4.9495 C.ar      1 <0>        -0.1357
     23 C19         7.7243   -4.0442    6.1487 C.ar      1 <0>        -0.0868
     24 C20         6.5738   -3.3926    6.5873 C.ar      1 <0>        -0.0570
     25 C21         6.5862   -2.7143    7.7869 C.ar      1 <0>        -0.1485
     26 C22         7.7385   -2.6782    8.5570 C.ar      1 <0>        -0.0864
     27 C23         8.8839   -3.3181    8.1348 C.ar      1 <0>        -0.1430
     28 C24         8.8909   -4.0090    6.9270 C.ar      1 <0>         0.1307
     29 N2          9.8709   -4.7385    6.2769 N.pl3     1 <0>        -0.6148
     30 H1         10.7741   -4.8698    6.6054 H         1 <0>         0.4191
     31 O4          3.1857   -5.3548    3.6391 O.3       1 <0>        -0.5368
     32 H2          1.0053    1.8021    0.0021 H         1 <0>         0.1007
     33 H3         -0.5445    1.7859   -0.8732 H         1 <0>         0.0545
     34 H4         -0.5275    1.7763    0.9067 H         1 <0>         0.0554
     35 H5         -2.3338    1.1787    0.0211 H         1 <0>         0.1347
     36 H6         -4.5102    0.0294    0.0345 H         1 <0>         0.1272
     37 H7         -4.6086   -2.4288    0.0325 H         1 <0>         0.1274
     38 H8         -2.5312   -3.7485    0.0167 H         1 <0>         0.1347
     39 H9         -0.7791   -4.4975    0.8754 H         1 <0>         0.0741
     40 H10        -0.7960   -4.4879   -0.9044 H         1 <0>         0.0675
     41 H11         1.0452   -5.9029   -0.1290 H         1 <0>         0.0931
     42 H12         1.7157   -4.4349   -0.8798 H         1 <0>         0.0425
     43 H13         1.8982   -3.5053    1.3583 H         1 <0>         0.3542
     44 H14         3.1014   -6.1880    1.1497 H         1 <0>         0.0805
     45 H15         3.7719   -4.7200    0.3989 H         1 <0>         0.0436
     46 H16         3.8950   -3.6693    2.6777 H         1 <0>         0.1087
     47 H17         5.3170   -6.3614    2.4804 H         1 <0>         0.0690
     48 H18         5.8343   -4.8815    1.6376 H         1 <0>         0.0726
     49 H19         7.3497   -6.2816    1.9678 H         1 <0>         0.1301
     50 H20         9.6984   -6.9704    2.1992 H         1 <0>         0.1320
     51 H21        10.9999   -6.3151    4.1718 H         1 <0>         0.1259
     52 H22         5.6751   -3.4186    5.9889 H         1 <0>         0.1304
     53 H23         5.6950   -2.2087    8.1282 H         1 <0>         0.1269
     54 H24         7.7387   -2.1439    9.4956 H         1 <0>         0.1286
     55 H25         9.7764   -3.2836    8.7420 H         1 <0>         0.1232
     56 H26         3.1391   -6.3195    3.5909 H         1 <0>         0.3730
@<TRIPOS>BOND
     1    1    2 1
     2    1   32 1
     3    1   33 1
     4    1   34 1
     5    2    3 1
     6    3    8 ar
     7    3    4 ar
     8    4    5 ar
     9    4   35 1
    10    5    6 ar
    11    5   36 1
    12    6    7 ar
    13    6   37 1
    14    7    8 ar
    15    7   38 1
    16    8    9 1
    17    9   10 1
    18   10   11 1
    19   10   39 1
    20   10   40 1
    21   11   12 1
    22   11   41 1
    23   11   42 1
    24   12   13 1
    25   12   43 1
    26   13   14 1
    27   13   44 1
    28   13   45 1
    29   14   15 1
    30   14   31 1
    31   14   46 1
    32   15   16 1
    33   15   47 1
    34   15   48 1
    35   16   17 1
    36   17   22 ar
    37   17   18 ar
    38   18   19 ar
    39   18   49 1
    40   19   20 ar
    41   19   50 1
    42   20   21 ar
    43   20   51 1
    44   21   29 1
    45   21   22 ar
    46   22   23 1
    47   23   28 ar
    48   23   24 ar
    49   24   25 ar
    50   24   52 1
    51   25   26 ar
    52   25   53 1
    53   26   27 ar
    54   26   54 1
    55   27   28 ar
    56   27   55 1
    57   28   29 1
    58   29   30 1
    59   31   56 1
@<TRIPOS>MOLECULE
CHEMBL723__2
   57    60     0     0     0
SMALL
USER_CHARGES

@<TRIPOS>ATOM
      1 C1         -0.0173    1.4248    0.0099 C.3       1 <0>         0.0234
      2 O1          0.0021   -0.0041    0.0020 O.3       1 <0>        -0.3124
      3 C2          0.6062   -0.6075   -1.0564 C.ar      1 <0>         0.1102
      4 C3          1.1729    0.1590   -2.0621 C.ar      1 <0>        -0.1707
      5 C4          1.7870   -0.4560   -3.1371 C.ar      1 <0>        -0.0979
      6 C5          1.8372   -1.8356   -3.2121 C.ar      1 <0>        -0.1163
      7 C6          1.2734   -2.6062   -2.2124 C.ar      1 <0>        -0.1651
      8 C7          0.6617   -1.9961   -1.1290 C.ar      1 <0>         0.0803
      9 O2          0.1119   -2.7526   -0.1417 O.3       1 <0>        -0.3185
     10 C8          0.2064   -4.1715   -0.2827 C.3       1 <0>         0.0231
     11 C9         -0.4630   -4.8487    0.9148 C.3       1 <0>         0.0020
     12 N1         -1.9017   -4.5521    0.9040 N.4       1 <0>        -0.5046
     13 C10        -2.5444   -5.2023    2.0538 C.3       1 <0>        -0.0423
     14 C11        -4.0428   -4.8933    2.0425 C.3       1 <0>         0.0853
     15 C12        -4.7123   -5.5706    3.2401 C.3       1 <0>         0.0286
     16 O3         -6.1265   -5.3798    3.1660 O.3       1 <0>        -0.2955
     17 C13        -6.8751   -5.9229    4.1611 C.ar      1 <0>         0.1791
     18 C14        -6.2645   -6.6191    5.1897 C.ar      1 <0>        -0.2456
     19 C15        -7.0273   -7.1730    6.2045 C.ar      1 <0>        -0.0443
     20 C16        -8.3996   -7.0397    6.2043 C.ar      1 <0>        -0.1712
     21 C17        -9.0343   -6.3440    5.1793 C.ar      1 <0>         0.1819
     22 C18        -8.2644   -5.7764    4.1541 C.ar      1 <0>        -0.1299
     23 C19        -9.2097   -5.1108    3.2397 C.ar      1 <0>        -0.0923
     24 C20        -9.0542   -4.3908    2.0573 C.ar      1 <0>        -0.0604
     25 C21       -10.1619   -3.8790    1.4166 C.ar      1 <0>        -0.1468
     26 C22       -11.4283   -4.0780    1.9446 C.ar      1 <0>        -0.0826
     27 C23       -11.5964   -4.7880    3.1139 C.ar      1 <0>        -0.1382
     28 C24       -10.4904   -5.3134    3.7750 C.ar      1 <0>         0.1336
     29 N2        -10.3660   -6.0629    4.9316 N.pl3     1 <0>        -0.6121
     30 H1        -11.1055   -6.3405    5.4947 H         1 <0>         0.4226
     31 O4         -4.2384   -3.4801    2.1238 O.3       1 <0>        -0.5417
     32 H2          1.0053    1.8021    0.0021 H         1 <0>         0.0599
     33 H3         -0.5445    1.7859   -0.8732 H         1 <0>         0.0597
     34 H4         -0.5275    1.7763    0.9067 H         1 <0>         0.1055
     35 H5          1.1344    1.2368   -2.0063 H         1 <0>         0.1417
     36 H6          2.2283    0.1425   -3.9203 H         1 <0>         0.1350
     37 H7          2.3175   -2.3124   -4.0537 H         1 <0>         0.1340
     38 H8          1.3136   -3.6837   -2.2735 H         1 <0>         0.1347
     39 H9         -0.2940   -4.4795   -1.2008 H         1 <0>         0.0872
     40 H10         1.2558   -4.4633   -0.3254 H         1 <0>         0.1106
     41 H11        -0.3138   -5.9267    0.8528 H         1 <0>         0.1526
     42 H12        -0.0216   -4.4734    1.8380 H         1 <0>         0.1440
     43 H13        -2.0398   -3.5542    0.9614 H         1 <0>         0.4417
     44 H14        -2.3952   -6.2803    1.9918 H         1 <0>         0.1479
     45 H15        -2.1030   -4.8270    2.9770 H         1 <0>         0.1411
     46 H16        -4.4843   -5.2687    1.1193 H         1 <0>         0.1354
     47 H17        -4.4883   -6.6372    3.2262 H         1 <0>         0.0830
     48 H18        -4.3343   -5.1319    4.1636 H         1 <0>         0.0784
     49 H19        -5.1904   -6.7310    5.2009 H         1 <0>         0.1279
     50 H20        -6.5426   -7.7147    7.0033 H         1 <0>         0.1352
     51 H21        -8.9834   -7.4765    7.0010 H         1 <0>         0.1305
     52 H22        -8.0687   -4.2338    1.6443 H         1 <0>         0.1254
     53 H23       -10.0429   -3.3206    0.4999 H         1 <0>         0.1275
     54 H24       -12.2904   -3.6728    1.4356 H         1 <0>         0.1319
     55 H25       -12.5872   -4.9370    3.5170 H         1 <0>         0.1270
     56 H26        -3.8700   -3.0774    2.9221 H         1 <0>         0.3907
     57 H27        -2.3103   -4.8995    0.0494 H         1 <0>         0.4299
@<TRIPOS>BOND
     1    1    2 1
     2    1   32 1
     3    1   33 1
     4    1   34 1
     5    2    3 1
     6    3    8 ar
     7    3    4 ar
     8    4    5 ar
     9    4   35 1
    10    5    6 ar
    11    5   36 1
    12    6    7 ar
    13    6   37 1
    14    7    8 ar
    15    7   38 1
    16    8    9 1
    17    9   10 1
    18   10   11 1
    19   10   39 1
    20   10   40 1
    21   11   12 1
    22   11   41 1
    23   11   42 1
    24   12   13 1
    25   12   43 1
    26   12   57 1
    27   13   14 1
    28   13   44 1
    29   13   45 1
    30   14   15 1
    31   14   31 1
    32   14   46 1
    33   15   16 1
    34   15   47 1
    35   15   48 1
    36   16   17 1
    37   17   22 ar
    38   17   18 ar
    39   18   19 ar
    40   18   49 1
    41   19   20 ar
    42   19   50 1
    43   20   21 ar
    44   20   51 1
    45   21   29 1
    46   21   22 ar
    47   22   23 1
    48   23   28 ar
    49   23   24 ar
    50   24   25 ar
    51   24   52 1
    52   25   26 ar
    53   25   53 1
    54   26   27 ar
    55   26   54 1
    56   27   28 ar
    57   27   55 1
    58   28   29 1
    59   29   30 1
    60   31   56 1
@<TRIPOS>MOLECULE
CHEMBL723__3
   56    59     0     0     0
SMALL
USER_CHARGES

@<TRIPOS>ATOM
      1 C1         -0.0173    1.4248    0.0099 C.3       1 <0>         0.0262
      2 O1          0.0021   -0.0041    0.0020 O.3       1 <0>        -0.3067
      3 C2         -1.2011   -0.6379    0.0101 C.ar      1 <0>         0.0983
      4 C3         -2.3743    0.0994    0.0195 C.ar      1 <0>        -0.1736
      5 C4         -3.5965   -0.5465    0.0272 C.ar      1 <0>        -0.1174
      6 C5         -3.6519   -1.9279    0.0261 C.ar      1 <0>        -0.1169
      7 C6         -2.4852   -2.6694    0.0172 C.ar      1 <0>        -0.1729
      8 C7         -1.2569   -2.0283    0.0032 C.ar      1 <0>         0.1042
      9 O2         -0.1083   -2.7563   -0.0116 O.3       1 <0>        -0.3059
     10 C8         -0.2420   -4.1790   -0.0180 C.3       1 <0>         0.0575
     11 C9          1.1464   -4.8217   -0.0346 C.3       1 <0>         0.0631
     12 N1          1.8485   -4.5029    1.2157 N.3       1 <0>        -0.6828
     13 C10         3.1884   -5.1049    1.2353 C.3       1 <0>         0.0306
     14 C11         3.8870   -4.7517    2.5499 C.3       1 <0>         0.1124
     15 C12         5.2825   -5.3787    2.5703 C.3       1 <0>         0.0272
     16 O3          5.8900   -5.1476    3.8429 O.3       1 <0>        -0.2952
     17 C13         7.1412   -5.6432    4.0282 C.ar      1 <0>         0.1903
     18 C14         7.7745   -6.3316    3.0081 C.ar      1 <0>        -0.2493
     19 C15         9.0503   -6.8371    3.1964 C.ar      1 <0>        -0.0417
     20 C16         9.7043   -6.6629    4.3976 C.ar      1 <0>        -0.1829
     21 C17         9.0858   -5.9742    5.4372 C.ar      1 <0>         0.1796
     22 C18         7.7971   -5.4555    5.2473 C.ar      1 <0>        -0.1357
     23 C19         7.4257   -4.7850    6.5064 C.ar      1 <0>        -0.0868
     24 C20         6.2888   -4.0996    6.9286 C.ar      1 <0>        -0.0570
     25 C21         6.2407   -3.5710    8.2005 C.ar      1 <0>        -0.1485
     26 C22         7.3189   -3.7189    9.0595 C.ar      1 <0>        -0.0864
     27 C23         8.4500   -4.3943    8.6545 C.ar      1 <0>        -0.1430
     28 C24         8.5172   -4.9359    7.3745 C.ar      1 <0>         0.1307
     29 N2          9.4982   -5.6598    6.7197 N.pl3     1 <0>        -0.6148
     30 H1         10.3569   -5.9011    7.1010 H         1 <0>         0.4191
     31 O4          4.0011   -3.3317    2.6621 O.3       1 <0>        -0.5456
     32 H2          1.0053    1.8021    0.0021 H         1 <0>         0.1008
     33 H3         -0.5445    1.7859   -0.8732 H         1 <0>         0.0542
     34 H4         -0.5275    1.7763    0.9067 H         1 <0>         0.0553
     35 H5         -2.3338    1.1787    0.0211 H         1 <0>         0.1347
     36 H6         -4.5102    0.0294    0.0345 H         1 <0>         0.1271
     37 H7         -4.6086   -2.4288    0.0325 H         1 <0>         0.1273
     38 H8         -2.5312   -3.7485    0.0167 H         1 <0>         0.1346
     39 H9         -0.7791   -4.4975    0.8754 H         1 <0>         0.0736
     40 H10        -0.7960   -4.4879   -0.9044 H         1 <0>         0.0677
     41 H11         1.0452   -5.9029   -0.1290 H         1 <0>         0.0932
     42 H12         1.7157   -4.4349   -0.8798 H         1 <0>         0.0425
     43 H13         1.8982   -3.5053    1.3583 H         1 <0>         0.3604
     44 H14         3.1014   -6.1880    1.1497 H         1 <0>         0.0856
     45 H15         3.7719   -4.7200    0.3989 H         1 <0>         0.0374
     46 H16         3.3035   -5.1366    3.3862 H         1 <0>         0.1189
     47 H17         5.2014   -6.4516    2.3958 H         1 <0>         0.0746
     48 H18         5.8945   -4.9287    1.7885 H         1 <0>         0.0671
     49 H19         7.2725   -6.4752    2.0627 H         1 <0>         0.1300
     50 H20         9.5371   -7.3730    2.3950 H         1 <0>         0.1320
     51 H21        10.6988   -7.0621    4.5324 H         1 <0>         0.1259
     52 H22         5.4478   -3.9824    6.2611 H         1 <0>         0.1305
     53 H23         5.3600   -3.0394    8.5292 H         1 <0>         0.1269
     54 H24         7.2722   -3.3010   10.0542 H         1 <0>         0.1286
     55 H25         9.2846   -4.5037    9.3312 H         1 <0>         0.1232
     56 H26         4.5092   -2.9204    1.9495 H         1 <0>         0.3723
@<TRIPOS>BOND
     1    1    2 1
     2    1   32 1
     3    1   33 1
     4    1   34 1
     5    2    3 1
     6    3    8 ar
     7    3    4 ar
     8    4    5 ar
     9    4   35 1
    10    5    6 ar
    11    5   36 1
    12    6    7 ar
    13    6   37 1
    14    7    8 ar
    15    7   38 1
    16    8    9 1
    17    9   10 1
    18   10   11 1
    19   10   39 1
    20   10   40 1
    21   11   12 1
    22   11   41 1
    23   11   42 1
    24   12   13 1
    25   12   43 1
    26   13   14 1
    27   13   44 1
    28   13   45 1
    29   14   15 1
    30   14   31 1
    31   14   46 1
    32   15   16 1
    33   15   47 1
    34   15   48 1
    35   16   17 1
    36   17   22 ar
    37   17   18 ar
    38   18   19 ar
    39   18   49 1
    40   19   20 ar
    41   19   50 1
    42   20   21 ar
    43   20   51 1
    44   21   29 1
    45   21   22 ar
    46   22   23 1
    47   23   28 ar
    48   23   24 ar
    49   24   25 ar
    50   24   52 1
    51   25   26 ar
    52   25   53 1
    53   26   27 ar
    54   26   54 1
    55   27   28 ar
    56   27   55 1
    57   28   29 1
    58   29   30 1
    59   31   56 1
@<TRIPOS>MOLECULE
CHEMBL56308
   61    64     0     0     0
SMALL
USER_CHARGES

@<TRIPOS>ATOM
      1 C1          0.1478    2.4326   -7.5283 C.3       1 <0>        -0.1545
      2 C2          0.2905    1.6357   -6.2301 C.3       1 <0>        -0.1257
      3 C3          0.8655    0.2525   -6.5414 C.3       1 <0>        -0.1211
      4 C4          1.0082   -0.5445   -5.2432 C.3       1 <0>        -0.1208
      5 C5          1.5833   -1.9277   -5.5545 C.3       1 <0>        -0.1134
      6 C6          1.7260   -2.7247   -4.2562 C.3       1 <0>        -0.0822
      7 C7          2.2924   -4.0871   -4.5629 C.ar      1 <0>        -0.0621
      8 C8          1.4425   -5.1397   -4.8506 C.ar      1 <0>        -0.1214
      9 C9          1.9580   -6.3914   -5.1325 C.ar      1 <0>        -0.0973
     10 C10         3.3241   -6.5946   -5.1276 C.ar      1 <0>        -0.1347
     11 C11         4.1805   -5.5397   -4.8390 C.ar      1 <0>         0.1601
     12 C12         3.6593   -4.2818   -4.5617 C.ar      1 <0>        -0.1257
     13 N1          5.5629   -5.7417   -4.8328 N.pl3     1 <0>        -0.5706
     14 C13         6.4427   -5.4920   -3.6879 C.3       1 <0>         0.1161
     15 C14         7.8532   -5.8624   -4.1751 C.3       1 <0>        -0.0829
     16 C15         7.6557   -6.3083   -5.6064 C.ar      1 <0>        -0.1848
     17 C16         6.3069   -6.2168   -5.9145 C.ar      1 <0>         0.2494
     18 C17         5.8770   -6.5840   -7.1914 C.ar      1 <0>        -0.1887
     19 C18         6.7836   -7.0341   -8.1274 C.ar      1 <0>         0.0287
     20 C19         8.1260   -7.1252   -7.8087 C.ar      1 <0>        -0.7209
     21 C20         8.5608   -6.7552   -6.5492 C.ar      1 <0>         0.0399
     22 S1          9.2812   -7.7015   -9.0079 S.o2      1 <0>         2.6953
     23 O1         10.3375   -8.3227   -8.2885 O.2       1 <0>        -0.9540
     24 O2          8.5291   -8.3867   -9.9999 O.2       1 <0>        -0.9512
     25 N2          9.9300   -6.3672   -9.7434 N.pl3     1 <0>        -1.0586
     26 C21         9.1100   -5.5048  -10.4746 C.ar      1 <0>         0.1439
     27 C22         8.1894   -6.0193  -11.3787 C.ar      1 <0>        -0.1519
     28 C23         7.3798   -5.1637  -12.0998 C.ar      1 <0>        -0.0970
     29 C24         7.4852   -3.7963  -11.9228 C.ar      1 <0>        -0.1272
     30 C25         8.4006   -3.2808  -11.0237 C.ar      1 <0>        -0.1032
     31 C26         9.2093   -4.1309  -10.2952 C.ar      1 <0>        -0.1290
     32 H1          1.1259    2.5428   -7.9964 H         1 <0>         0.0533
     33 H2         -0.5224    1.9048   -8.2069 H         1 <0>         0.0536
     34 H3         -0.2619    3.4181   -7.3065 H         1 <0>         0.0538
     35 H4          0.9606    2.1635   -5.5516 H         1 <0>         0.0603
     36 H5         -0.6877    1.5255   -5.7620 H         1 <0>         0.0607
     37 H6          0.1954   -0.2753   -7.2199 H         1 <0>         0.0614
     38 H7          1.8437    0.3626   -7.0095 H         1 <0>         0.0607
     39 H8          1.6784   -0.0167   -4.5646 H         1 <0>         0.0617
     40 H9          0.0300   -0.6546   -4.7751 H         1 <0>         0.0627
     41 H10         0.9131   -2.4555   -6.2330 H         1 <0>         0.0644
     42 H11         2.5615   -1.8176   -6.0226 H         1 <0>         0.0624
     43 H12         2.3961   -2.1969   -3.5777 H         1 <0>         0.0725
     44 H13         0.7478   -2.8348   -3.7881 H         1 <0>         0.0756
     45 H14         0.3739   -4.9837   -4.8548 H         1 <0>         0.1261
     46 H15         1.2915   -7.2113   -5.3564 H         1 <0>         0.1290
     47 H16         3.7260   -7.5726   -5.3475 H         1 <0>         0.1245
     48 H17         4.3225   -3.4584   -4.3413 H         1 <0>         0.1234
     49 H18         6.4048   -4.4402   -3.4042 H         1 <0>         0.0767
     50 H19         6.1559   -6.1221   -2.8460 H         1 <0>         0.0781
     51 H20         8.5099   -4.9934   -4.1346 H         1 <0>         0.0915
     52 H21         8.2608   -6.6766   -3.5759 H         1 <0>         0.0927
     53 H22         4.8298   -6.5155   -7.4466 H         1 <0>         0.1290
     54 H23         6.4441   -7.3167   -9.1129 H         1 <0>         0.1429
     55 H24         9.6088   -6.8267   -6.2985 H         1 <0>         0.1380
     56 H25        10.8796   -6.1846   -9.6665 H         1 <0>         0.4263
     57 H26         8.1071   -7.0871  -11.5179 H         1 <0>         0.1559
     58 H27         6.6638   -5.5630  -12.8028 H         1 <0>         0.1299
     59 H28         6.8514   -3.1294  -12.4885 H         1 <0>         0.1250
     60 H29         8.4804   -2.2123  -10.8879 H         1 <0>         0.1263
     61 H30         9.9209   -3.7278   -9.5898 H         1 <0>         0.1270
@<TRIPOS>BOND
     1    1    2 1
     2    1   32 1
     3    1   33 1
     4    1   34 1
     5    2    3 1
     6    2   35 1
     7    2   36 1
     8    3    4 1
     9    3   37 1
    10    3   38 1
    11    4    5 1
    12    4   39 1
    13    4   40 1
    14    5    6 1
    15    5   41 1
    16    5   42 1
    17    6    7 1
    18    6   43 1
    19    6   44 1
    20    7   12 ar
    21    7    8 ar
    22    8    9 ar
    23    8   45 1
    24    9   10 ar
    25    9   46 1
    26   10   11 ar
    27   10   47 1
    28   11   12 ar
    29   11   13 1
    30   12   48 1
    31   13   17 1
    32   13   14 1
    33   14   15 1
    34   14   49 1
    35   14   50 1
    36   15   16 1
    37   15   51 1
    38   15   52 1
    39   16   21 ar
    40   16   17 ar
    41   17   18 ar
    42   18   19 ar
    43   18   53 1
    44   19   20 ar
    45   19   54 1
    46   20   21 ar
    47   20   22 1
    48   21   55 1
    49   22   23 2
    50   22   24 2
    51   22   25 1
    52   25   26 1
    53   25   56 1
    54   26   31 ar
    55   26   27 ar
    56   27   28 ar
    57   27   57 1
    58   28   29 ar
    59   28   58 1
    60   29   30 ar
    61   29   59 1
    62   30   31 ar
    63   30   60 1
    64   31   61 1
@<TRIPOS>MOLECULE
CHEMBL108061
   76    78     0     0     0
SMALL
USER_CHARGES

@<TRIPOS>ATOM
      1 C1          2.9386   -1.3120   -3.6439 C.3       1 <0>        -0.1703
      2 C2          1.5275   -1.8864   -3.5038 C.3       1 <0>         0.1322
      3 N1          0.5610   -0.7895   -3.4092 N.am      1 <0>        -0.6309
      4 C3         -0.1423   -0.3274   -4.6084 C.3       1 <0>         0.0657
      5 C4         -1.0414   -1.4474   -5.1357 C.3       1 <0>        -0.1819
      6 C5          0.3189   -0.2054   -2.2189 C.2       1 <0>         0.7110
      7 O1          1.1075   -0.3412   -1.3035 O.2       1 <0>        -0.5758
      8 N2         -0.7974    0.5290   -2.0433 N.am      1 <0>        -0.6297
      9 C6         -0.9670    1.3578   -0.8420 C.3       1 <0>         0.1320
     10 C7         -2.2986    0.9954   -0.1769 C.3       1 <0>        -0.1420
     11 C8         -3.4289    1.1322   -1.1996 C.3       1 <0>         0.1500
     12 C9         -3.1892    0.1637   -2.3600 C.3       1 <0>        -0.1481
     13 C10        -1.8653    0.5210   -3.0525 C.3       1 <0>         0.0558
     14 N3         -4.7081    0.8184   -0.5581 N.pl3     1 <0>        -0.7356
     15 C11        -5.8948    1.3474   -1.0708 C.ar      1 <0>         0.2385
     16 C12        -5.8644    2.1666   -2.1922 C.ar      1 <0>        -0.1985
     17 C13        -7.0397    2.6876   -2.6968 C.ar      1 <0>        -0.0561
     18 C14        -8.2457    2.3950   -2.0867 C.ar      1 <0>        -0.1771
     19 C15        -8.2795    1.5797   -0.9702 C.ar      1 <0>        -0.0557
     20 C16        -7.1085    1.0508   -0.4638 C.ar      1 <0>        -0.1956
     21 C17        -9.5260    2.9661   -2.6395 C.3       1 <0>        -0.0896
     22 C18       -10.1083    2.0031   -3.6760 C.3       1 <0>        -0.0075
     23 N4        -11.3564    2.5598   -4.2149 N.4       1 <0>        -0.5042
     24 C19       -11.9155    1.6352   -5.2101 C.3       1 <0>        -0.0416
     25 C20       -13.2154    2.2151   -5.7714 C.3       1 <0>         0.0856
     26 H1        -13.0106    3.1761   -6.2431 H         1 <0>         0.1361
     27 C21       -13.7977    1.2520   -6.8079 C.3       1 <0>         0.0289
     28 O2        -14.9471    1.8447   -7.4159 O.3       1 <0>        -0.3011
     29 C22       -15.5882    1.1142   -8.3669 C.ar      1 <0>         0.1089
     30 C23       -15.1228   -0.1486   -8.7023 C.ar      1 <0>        -0.1914
     31 C24       -15.7741   -0.8907   -9.6683 C.ar      1 <0>        -0.1062
     32 C25       -16.8937   -0.3732  -10.3026 C.ar      1 <0>         0.0803
     33 C26       -17.3597    0.8892   -9.9666 C.ar      1 <0>        -0.1026
     34 C27       -16.7109    1.6295   -8.9975 C.ar      1 <0>        -0.1261
     35 O3        -17.5343   -1.1033  -11.2543 O.3       1 <0>        -0.4958
     36 O4        -14.1539    2.3961   -4.7092 O.3       1 <0>        -0.5433
     37 H2          2.9942   -0.7002   -4.5442 H         1 <0>         0.0531
     38 H3          3.1694   -0.6986   -2.7729 H         1 <0>         0.0662
     39 H4          3.6577   -2.1282   -3.7143 H         1 <0>         0.0656
     40 H5          1.2967   -2.4998   -4.3747 H         1 <0>         0.0782
     41 H6          1.4719   -2.4982   -2.6034 H         1 <0>         0.0758
     42 H7         -0.7520    0.5414   -4.3599 H         1 <0>         0.1140
     43 H8          0.5846   -0.0544   -5.3734 H         1 <0>         0.0724
     44 H9         -1.7683   -1.7204   -4.3707 H         1 <0>         0.0641
     45 H10        -1.5647   -1.1036   -6.0279 H         1 <0>         0.0732
     46 H11        -0.4318   -2.3162   -5.3841 H         1 <0>         0.0692
     47 H12        -0.1482    1.1673   -0.1481 H         1 <0>         0.1019
     48 H13        -0.9734    2.4110   -1.1225 H         1 <0>         0.0681
     49 H14        -2.2571   -0.0323    0.1842 H         1 <0>         0.0752
     50 H15        -2.4821    1.6686    0.6605 H         1 <0>         0.0843
     51 H16        -3.4540    2.1539   -1.5785 H         1 <0>         0.0828
     52 H17        -3.1394   -0.8561   -1.9784 H         1 <0>         0.0718
     53 H18        -4.0066    0.2450   -3.0765 H         1 <0>         0.0760
     54 H19        -1.9434    1.5074   -3.5096 H         1 <0>         0.0697
     55 H20        -1.6394   -0.2217   -3.8176 H         1 <0>         0.1402
     56 H21        -4.7309    0.2431    0.2226 H         1 <0>         0.4036
     57 H22        -4.9228    2.3962   -2.6687 H         1 <0>         0.1261
     58 H23        -7.0168    3.3246   -3.5686 H         1 <0>         0.1211
     59 H24        -9.2230    1.3532   -0.4961 H         1 <0>         0.1214
     60 H25        -7.1361    0.4105    0.4055 H         1 <0>         0.1247
     61 H26       -10.2419    3.1042   -1.8293 H         1 <0>         0.0914
     62 H27        -9.3212    3.9272   -3.1112 H         1 <0>         0.0914
     63 H28        -9.3924    1.8650   -4.4863 H         1 <0>         0.1325
     64 H29       -10.3131    1.0420   -3.2043 H         1 <0>         0.1319
     65 H30       -12.0191    2.6877   -3.4649 H         1 <0>         0.4330
     66 H31       -11.1996    1.4971   -6.0204 H         1 <0>         0.1466
     67 H32       -12.1203    0.6741   -4.7384 H         1 <0>         0.1392
     68 H33       -13.0487    1.0444   -7.5721 H         1 <0>         0.0819
     69 H34       -14.0848    0.3215   -6.3183 H         1 <0>         0.0767
     70 H35       -14.2510   -0.5515   -8.2084 H         1 <0>         0.1284
     71 H36       -15.4112   -1.8737   -9.9300 H         1 <0>         0.1352
     72 H37       -18.2313    1.2923  -10.4608 H         1 <0>         0.1418
     73 H38       -17.0760    2.6110   -8.7332 H         1 <0>         0.1388
     74 H39       -18.2364   -1.6710  -10.9081 H         1 <0>         0.3940
     75 H40       -14.3831    1.5802   -4.2435 H         1 <0>         0.3900
     76 H41       -11.1668    3.4495   -4.6516 H         1 <0>         0.4305
@<TRIPOS>BOND
     1    1    2 1
     2    1   37 1
     3    1   38 1
     4    1   39 1
     5    2    3 1
     6    2   40 1
     7    2   41 1
     8    3    4 1
     9    3    6 am
    10    4    5 1
    11    4   42 1
    12    4   43 1
    13    5   44 1
    14    5   45 1
    15    5   46 1
    16    6    7 2
    17    6    8 am
    18    8   13 1
    19    8    9 1
    20    9   10 1
    21    9   47 1
    22    9   48 1
    23   10   11 1
    24   10   49 1
    25   10   50 1
    26   11   12 1
    27   11   14 1
    28   11   51 1
    29   12   13 1
    30   12   52 1
    31   12   53 1
    32   13   54 1
    33   13   55 1
    34   14   15 1
    35   14   56 1
    36   15   20 ar
    37   15   16 ar
    38   16   17 ar
    39   16   57 1
    40   17   18 ar
    41   17   58 1
    42   18   19 ar
    43   18   21 1
    44   19   20 ar
    45   19   59 1
    46   20   60 1
    47   21   22 1
    48   21   61 1
    49   21   62 1
    50   22   23 1
    51   22   63 1
    52   22   64 1
    53   23   24 1
    54   23   65 1
    55   23   76 1
    56   24   25 1
    57   24   66 1
    58   24   67 1
    59   25   26 1
    60   25   27 1
    61   25   36 1
    62   27   28 1
    63   27   68 1
    64   27   69 1
    65   28   29 1
    66   29   34 ar
    67   29   30 ar
    68   30   31 ar
    69   30   70 1
    70   31   32 ar
    71   31   71 1
    72   32   33 ar
    73   32   35 1
    74   33   34 ar
    75   33   72 1
    76   34   73 1
    77   35   74 1
    78   36   75 1
@<TRIPOS>MOLECULE
CHEMBL101740
   43    45     0     0     0
SMALL
USER_CHARGES

@<TRIPOS>ATOM
      1 C1         -0.0178    1.4648    0.0101 C.3       1 <0>        -0.0558
      2 N1          0.0021   -0.0041    0.0020 N.4       1 <0>        -0.3873
      3 C2          0.6897   -0.4778   -1.2066 C.3       1 <0>        -0.0474
      4 C3          0.7126   -0.4907    1.1921 C.3       1 <0>        -0.0076
      5 C4         -0.0711   -0.1034    2.4478 C.3       1 <0>        -0.1233
      6 C5          0.6578   -0.6026    3.6687 C.2       1 <0>        -0.1603
      7 C6          0.9869    0.2498    4.6469 C.2       1 <0>         0.0007
      8 C7          1.7090   -0.2510    5.8404 C.ar      1 <0>        -0.0503
      9 C8          2.7507   -1.1606    5.6006 C.ar      1 <0>        -0.1071
     10 C9          3.4786   -1.6867    6.6423 C.ar      1 <0>        -0.1150
     11 C10         3.1773   -1.3124    7.9400 C.ar      1 <0>        -0.1025
     12 C11         2.1575   -0.4193    8.1800 C.ar      1 <0>        -0.1174
     13 C12         1.4095    0.1263    7.1358 C.ar      1 <0>        -0.1008
     14 C13         0.3358    1.0943    7.5587 C.3       1 <0>         0.1159
     15 O1         -0.5748    1.4438    6.5480 O.3       1 <0>        -0.3234
     16 C14        -0.1903    2.2131    5.5112 C.ar      1 <0>         0.1199
     17 C15         0.6298    1.6819    4.5188 C.ar      1 <0>        -0.0929
     18 C16         1.0795    2.4600    3.4611 C.ar      1 <0>        -0.1007
     19 C17         0.6870    3.7845    3.3850 C.ar      1 <0>        -0.1290
     20 C18        -0.1447    4.3182    4.3534 C.ar      1 <0>        -0.0936
     21 C19        -0.5926    3.5387    5.4214 C.ar      1 <0>        -0.1252
     22 H1          1.0047    1.8421    0.0024 H         1 <0>         0.1228
     23 H2         -0.5450    1.8259   -0.8730 H         1 <0>         0.1262
     24 H3         -0.5280    1.8163    0.9069 H         1 <0>         0.1244
     25 H4          1.7123   -0.1005   -1.2143 H         1 <0>         0.1218
     26 H5          0.7044   -1.5677   -1.2126 H         1 <0>         0.1237
     27 H6          0.1625   -0.1167   -2.0897 H         1 <0>         0.1249
     28 H7          0.8051   -1.5756    1.1418 H         1 <0>         0.1332
     29 H8          1.7055   -0.0428    1.2310 H         1 <0>         0.1297
     30 H9         -0.1636    0.9815    2.4982 H         1 <0>         0.1009
     31 H10        -1.0640   -0.5514    2.4090 H         1 <0>         0.0963
     32 H11         0.9146   -1.6482    3.7545 H         1 <0>         0.1317
     33 H12         2.9831   -1.4509    4.5866 H         1 <0>         0.1235
     34 H13         4.2783   -2.3864    6.4492 H         1 <0>         0.1311
     35 H14         3.7421   -1.7213    8.7647 H         1 <0>         0.1316
     36 H15         1.9314   -0.1356    9.1973 H         1 <0>         0.1298
     37 H16        -0.2203    0.6520    8.3853 H         1 <0>         0.1233
     38 H17         0.8154    2.0042    7.9197 H         1 <0>         0.0703
     39 H18         1.7275    2.0372    2.7077 H         1 <0>         0.1246
     40 H19         1.0305    4.4028    2.5688 H         1 <0>         0.1317
     41 H20        -0.4542    5.3504    4.2816 H         1 <0>         0.1346
     42 H21        -1.2404    3.9617    6.1749 H         1 <0>         0.1395
     43 H22        -0.9445   -0.3533    0.0092 H         1 <0>         0.4275
@<TRIPOS>BOND
     1    1    2 1
     2    1   22 1
     3    1   23 1
     4    1   24 1
     5    2    3 1
     6    2    4 1
     7    2   43 1
     8    3   25 1
     9    3   26 1
    10    3   27 1
    11    4    5 1
    12    4   28 1
    13    4   29 1
    14    5    6 1
    15    5   30 1
    16    5   31 1
    17    6    7 2
    18    6   32 1
    19    7   17 1
    20    7    8 1
    21    8   13 ar
    22    8    9 ar
    23    9   10 ar
    24    9   33 1
    25   10   11 ar
    26   10   34 1
    27   11   12 ar
    28   11   35 1
    29   12   13 ar
    30   12   36 1
    31   13   14 1
    32   14   15 1
    33   14   37 1
    34   14   38 1
    35   15   16 1
    36   16   21 ar
    37   16   17 ar
    38   17   18 ar
    39   18   19 ar
    40   18   39 1
    41   19   20 ar
    42   19   40 1
    43   20   21 ar
    44   20   41 1
    45   21   42 1
@<TRIPOS>MOLECULE
CHEMBL22318
   82    85     0     0     0
SMALL
USER_CHARGES

@<TRIPOS>ATOM
      1 C1          0.2036   -6.5064    7.8964 C.3       1 <0>        -0.1553
      2 C2          0.0191   -7.7083    6.9679 C.3       1 <0>        -0.1256
      3 C3         -1.4272   -7.7516    6.4709 C.3       1 <0>        -0.1221
      4 C4         -1.6117   -8.9536    5.5423 C.3       1 <0>        -0.1204
      5 C5         -3.0580   -8.9969    5.0453 C.3       1 <0>        -0.1203
      6 C6         -3.2425  -10.1989    4.1168 C.3       1 <0>        -0.1149
      7 C7         -4.6888  -10.2422    3.6198 C.3       1 <0>        -0.1421
      8 C8         -4.8733  -11.4442    2.6912 C.3       1 <0>         0.1487
      9 N1         -6.2582  -11.4856    2.2153 N.am      1 <0>        -0.4621
     10 C9         -6.7372  -10.8953    1.0991 C.2       1 <0>         0.6496
     11 O1         -6.1063  -10.2294    0.2977 O.2       1 <0>        -0.5104
     12 N2         -8.0543  -11.1894    1.0473 N.am      1 <0>        -0.4264
     13 N3         -8.3541  -11.9752    2.1668 N.2       1 <0>         0.0292
     14 N4         -7.3260  -12.1496    2.8313 N.2       1 <0>         0.0507
     15 C10        -8.9561  -10.7822    0.0550 C.ar      1 <0>         0.2333
     16 C11        -8.5164  -10.0042   -1.0077 C.ar      1 <0>        -0.1583
     17 C12        -9.4076   -9.6048   -1.9845 C.ar      1 <0>         0.0109
     18 C13       -10.7365   -9.9787   -1.9046 C.ar      1 <0>        -0.6892
     19 C14       -11.1774  -10.7534   -0.8475 C.ar      1 <0>         0.0111
     20 C15       -10.2900  -11.1607    0.1294 C.ar      1 <0>        -0.1435
     21 S1        -11.8705   -9.4662   -3.1521 S.o2      1 <0>         2.6897
     22 O2        -13.1431   -9.3664   -2.5278 O.2       1 <0>        -0.9393
     23 O3        -11.2649   -8.3719   -3.8267 O.2       1 <0>        -0.9429
     24 N5        -11.9783  -10.6993   -4.2521 N.pl3     1 <0>        -1.0674
     25 C16       -10.8506  -11.0871   -4.9793 C.ar      1 <0>         0.1426
     26 C17       -10.3925  -10.2981   -6.0268 C.ar      1 <0>        -0.0999
     27 C18        -9.2769  -10.6843   -6.7434 C.ar      1 <0>        -0.0983
     28 C19        -8.6162  -11.8551   -6.4195 C.ar      1 <0>        -0.1008
     29 C20        -9.0696  -12.6430   -5.3773 C.ar      1 <0>        -0.1011
     30 C21       -10.1812  -12.2598   -4.6529 C.ar      1 <0>        -0.1070
     31 C22        -7.3998  -12.2738   -7.2043 C.3       1 <0>        -0.1020
     32 C23        -6.1458  -11.6867   -6.5533 C.3       1 <0>        -0.0093
     33 N6         -4.9601  -12.0948   -7.3183 N.4       1 <0>        -0.5053
     34 C24        -3.7561  -11.5311   -6.6932 C.3       1 <0>        -0.0433
     35 C25        -2.5211  -11.9562   -7.4900 C.3       1 <0>         0.1417
     36 H1         -2.6049  -11.5896   -8.5131 H         1 <0>         0.1343
     37 C26        -1.2860  -11.3779   -6.8488 C.ar      1 <0>        -0.2005
     38 C27        -0.7580  -10.1772   -7.2986 C.ar      1 <0>        -0.0545
     39 C28         0.3794   -9.6832   -6.6788 C.ar      1 <0>        -0.1637
     40 C29         0.9453  -10.3989   -5.6405 C.ar      1 <0>         0.1226
     41 N7          0.4161  -11.5379   -5.2393 N.ar      1 <0>        -0.4748
     42 C30        -0.6687  -12.0347   -5.8014 C.ar      1 <0>         0.1171
     43 O4         -2.4289  -13.3822   -7.5011 O.3       1 <0>        -0.5460
     44 H2          1.2340   -6.4755    8.2505 H         1 <0>         0.0548
     45 H3         -0.0212   -5.5890    7.3523 H         1 <0>         0.0533
     46 H4         -0.4706   -6.5982    8.7479 H         1 <0>         0.0541
     47 H5          0.6934   -7.6165    6.1164 H         1 <0>         0.0600
     48 H6          0.2440   -8.6257    7.5120 H         1 <0>         0.0610
     49 H7         -2.1014   -7.8435    7.3224 H         1 <0>         0.0618
     50 H8         -1.6520   -6.8343    5.9267 H         1 <0>         0.0606
     51 H9         -0.9375   -8.8618    4.6908 H         1 <0>         0.0614
     52 H10        -1.3868   -9.8709    6.0865 H         1 <0>         0.0630
     53 H11        -3.7322   -9.0888    5.8968 H         1 <0>         0.0642
     54 H12        -3.2828   -8.0796    4.5012 H         1 <0>         0.0622
     55 H13        -2.5683  -10.1070    3.2653 H         1 <0>         0.0674
     56 H14        -3.0177  -11.1162    4.6609 H         1 <0>         0.0704
     57 H15        -5.3630  -10.3340    4.4713 H         1 <0>         0.0762
     58 H16        -4.9136   -9.3249    3.0756 H         1 <0>         0.0711
     59 H17        -4.1991  -11.3523    1.8397 H         1 <0>         0.1067
     60 H18        -4.6485  -12.3615    3.2354 H         1 <0>         0.1100
     61 H19        -7.4788   -9.7113   -1.0703 H         1 <0>         0.1624
     62 H20        -9.0662   -8.9997   -2.8113 H         1 <0>         0.1505
     63 H21       -12.2159  -11.0438   -0.7878 H         1 <0>         0.1541
     64 H22       -10.6340  -11.7695    0.9524 H         1 <0>         0.1529
     65 H23       -12.8247  -11.1523   -4.3915 H         1 <0>         0.4318
     66 H24       -10.9084   -9.3839   -6.2807 H         1 <0>         0.1438
     67 H25        -8.9202  -10.0713   -7.5579 H         1 <0>         0.1334
     68 H26        -8.5514  -13.5568   -5.1270 H         1 <0>         0.1303
     69 H27       -10.5321  -12.8732   -3.8362 H         1 <0>         0.1359
     70 H28        -7.3295  -13.3615   -7.2128 H         1 <0>         0.0986
     71 H29        -7.4836  -11.9072   -8.2274 H         1 <0>         0.0996
     72 H30        -6.2162  -10.5990   -6.5448 H         1 <0>         0.1361
     73 H31        -6.0621  -12.0533   -5.5302 H         1 <0>         0.1338
     74 H32        -4.8950  -13.1017   -7.3261 H         1 <0>         0.4325
     75 H33        -3.8264  -10.4434   -6.6848 H         1 <0>         0.1456
     76 H34        -3.6723  -11.8978   -5.6701 H         1 <0>         0.1375
     77 H35        -1.2216   -9.6398   -8.1126 H         1 <0>         0.1413
     78 H36         0.8180   -8.7511   -7.0034 H         1 <0>         0.1474
     79 H37         1.8315  -10.0209   -5.1524 H         1 <0>         0.1671
     80 H38        -1.0765  -12.9679   -5.4420 H         1 <0>         0.1524
     81 H39        -2.3517  -13.7781   -6.6223 H         1 <0>         0.3896
     82 H40        -5.0376  -11.7554   -8.2654 H         1 <0>         0.4302
@<TRIPOS>BOND
     1    1    2 1
     2    1   44 1
     3    1   45 1
     4    1   46 1
     5    2    3 1
     6    2   47 1
     7    2   48 1
     8    3    4 1
     9    3   49 1
    10    3   50 1
    11    4    5 1
    12    4   51 1
    13    4   52 1
    14    5    6 1
    15    5   53 1
    16    5   54 1
    17    6    7 1
    18    6   55 1
    19    6   56 1
    20    7    8 1
    21    7   57 1
    22    7   58 1
    23    8    9 1
    24    8   59 1
    25    8   60 1
    26    9   14 1
    27    9   10 am
    28   10   11 2
    29   10   12 am
    30   12   13 1
    31   12   15 1
    32   13   14 2
    33   15   20 ar
    34   15   16 ar
    35   16   17 ar
    36   16   61 1
    37   17   18 ar
    38   17   62 1
    39   18   19 ar
    40   18   21 1
    41   19   20 ar
    42   19   63 1
    43   20   64 1
    44   21   22 2
    45   21   23 2
    46   21   24 1
    47   24   25 1
    48   24   65 1
    49   25   30 ar
    50   25   26 ar
    51   26   27 ar
    52   26   66 1
    53   27   28 ar
    54   27   67 1
    55   28   29 ar
    56   28   31 1
    57   29   30 ar
    58   29   68 1
    59   30   69 1
    60   31   32 1
    61   31   70 1
    62   31   71 1
    63   32   33 1
    64   32   72 1
    65   32   73 1
    66   33   34 1
    67   33   74 1
    68   33   82 1
    69   34   35 1
    70   34   75 1
    71   34   76 1
    72   35   36 1
    73   35   37 1
    74   35   43 1
    75   37   42 ar
    76   37   38 ar
    77   38   39 ar
    78   38   77 1
    79   39   40 ar
    80   39   78 1
    81   40   41 ar
    82   40   79 1
    83   41   42 ar
    84   42   80 1
    85   43   81 1
@<TRIPOS>MOLECULE
CHEMBL22318__1
   81    84     0     0     0
SMALL
USER_CHARGES

@<TRIPOS>ATOM
      1 C1         -0.0187    1.5258    0.0104 C.3       1 <0>        -0.1545
      2 C2          0.0021   -0.0041    0.0020 C.3       1 <0>        -0.1258
      3 C3          0.7182   -0.4975   -1.2568 C.3       1 <0>        -0.1219
      4 C4          0.7390   -2.0273   -1.2652 C.3       1 <0>        -0.1204
      5 C5          1.4551   -2.5207   -2.5240 C.3       1 <0>        -0.1200
      6 C6          1.4758   -4.0506   -2.5324 C.3       1 <0>        -0.1150
      7 C7          2.1920   -4.5440   -3.7912 C.3       1 <0>        -0.1415
      8 C8          2.2127   -6.0738   -3.7996 C.3       1 <0>         0.1507
      9 N1          2.8984   -6.5463   -5.0050 N.am      1 <0>        -0.4666
     10 C9          4.2197   -6.7991   -5.1251 C.2       1 <0>         0.6464
     11 O1          5.0672   -6.6795   -4.2584 O.2       1 <0>        -0.5080
     12 N2          4.4152   -7.2108   -6.3964 N.am      1 <0>        -0.4167
     13 N3          3.1710   -7.1982   -7.0386 N.2       1 <0>         0.0298
     14 N4          2.3030   -6.8241   -6.2414 N.2       1 <0>         0.0347
     15 C10         5.6394   -7.5821   -6.9683 C.ar      1 <0>         0.2038
     16 C11         6.8006   -7.5513   -6.2075 C.ar      1 <0>        -0.1562
     17 C12         8.0056   -7.9183   -6.7739 C.ar      1 <0>         0.0039
     18 C13         8.0565   -8.3158   -8.0974 C.ar      1 <0>        -0.6263
     19 C14         6.9019   -8.3475   -8.8577 C.ar      1 <0>         0.0009
     20 C15         5.6929   -7.9871   -8.2954 C.ar      1 <0>        -0.1458
     21 S1          9.5959   -8.7821   -8.8167 S.o2      1 <0>         2.6100
     22 O2          9.4637   -8.5910  -10.2186 O.2       1 <0>        -1.0226
     23 O3         10.6107   -8.1445   -8.0532 O.2       1 <0>        -1.0248
     24 N5          9.7754  -10.4107   -8.5760 N.2       1 <0>        -1.0816
     25 C16        10.9168  -11.0645   -9.0458 C.ar      1 <0>         0.2967
     26 C17        11.9050  -10.3491   -9.7101 C.ar      1 <0>        -0.2649
     27 C18        13.0325  -10.9985  -10.1729 C.ar      1 <0>        -0.0475
     28 C19        13.1782  -12.3595   -9.9761 C.ar      1 <0>        -0.2360
     29 C20        12.1963  -13.0747   -9.3152 C.ar      1 <0>        -0.0636
     30 C21        11.0690  -12.4305   -8.8447 C.ar      1 <0>        -0.1806
     31 C22        14.4094  -13.0650  -10.4834 C.3       1 <0>        -0.0710
     32 C23        15.4885  -13.0512   -9.3987 C.3       1 <0>        -0.0113
     33 N6         16.6887  -13.7388   -9.8933 N.4       1 <0>        -0.5054
     34 C24        17.7247  -13.7255   -8.8519 C.3       1 <0>        -0.0426
     35 C25        18.9747  -14.4418   -9.3669 C.3       1 <0>         0.1404
     36 H1         19.3460  -13.9310  -10.2554 H         1 <0>         0.1328
     37 C26        20.0375  -14.4281   -8.2986 C.ar      1 <0>        -0.1952
     38 C27        21.0091  -13.4388   -8.2874 C.ar      1 <0>        -0.0552
     39 C28        21.9670  -13.4660   -7.2856 C.ar      1 <0>        -0.1653
     40 C29        21.9221  -14.4712   -6.3380 C.ar      1 <0>         0.1185
     41 N7         20.9834  -15.3963   -6.3800 N.ar      1 <0>        -0.4762
     42 C30        20.0529  -15.3981   -7.3145 C.ar      1 <0>         0.1169
     43 O4         18.6477  -15.7933   -9.6962 O.3       1 <0>        -0.5469
     44 H2          1.0039    1.9031    0.0027 H         1 <0>         0.0533
     45 H3         -0.5459    1.8868   -0.8726 H         1 <0>         0.0533
     46 H4         -0.5289    1.8773    0.9072 H         1 <0>         0.0534
     47 H5          0.5293   -0.3651    0.8851 H         1 <0>         0.0604
     48 H6         -1.0205   -0.3814    0.0098 H         1 <0>         0.0604
     49 H7          0.1910   -0.1364   -2.1398 H         1 <0>         0.0609
     50 H8          1.7408   -0.1202   -1.2645 H         1 <0>         0.0609
     51 H9          1.2661   -2.3884   -0.3821 H         1 <0>         0.0620
     52 H10        -0.2836   -2.4046   -1.2575 H         1 <0>         0.0620
     53 H11         0.9279   -2.1597   -3.4071 H         1 <0>         0.0629
     54 H12         2.4777   -2.1435   -2.5317 H         1 <0>         0.0627
     55 H13         2.0030   -4.4117   -1.6494 H         1 <0>         0.0682
     56 H14         0.4533   -4.4279   -2.5247 H         1 <0>         0.0687
     57 H15         1.6648   -4.1829   -4.6743 H         1 <0>         0.0741
     58 H16         3.2146   -4.1667   -3.7990 H         1 <0>         0.0716
     59 H17         2.7399   -6.4349   -2.9166 H         1 <0>         0.1059
     60 H18         1.1901   -6.4511   -3.7919 H         1 <0>         0.1061
     61 H19         6.7615   -7.2403   -5.1740 H         1 <0>         0.1583
     62 H20         8.9090   -7.8945   -6.1827 H         1 <0>         0.1484
     63 H21         6.9448   -8.6584   -9.8911 H         1 <0>         0.1494
     64 H22         4.7908   -8.0164   -8.8884 H         1 <0>         0.1448
     65 H23        11.7915   -9.2863   -9.8648 H         1 <0>         0.1017
     66 H24        13.8012  -10.4429  -10.6895 H         1 <0>         0.1016
     67 H25        12.3132  -14.1376   -9.1631 H         1 <0>         0.1045
     68 H26        10.3046  -12.9889   -8.3247 H         1 <0>         0.1169
     69 H27        14.1600  -14.0959  -10.7346 H         1 <0>         0.0807
     70 H28        14.7807  -12.5542  -11.3718 H         1 <0>         0.0795
     71 H29        15.7379  -12.0202   -9.1475 H         1 <0>         0.1304
     72 H30        15.1171  -13.5619   -8.5103 H         1 <0>         0.1307
     73 H31        16.4577  -14.6931  -10.1258 H         1 <0>         0.4292
     74 H32        17.9741  -12.6946   -8.6007 H         1 <0>         0.1429
     75 H33        17.3534  -14.2363   -7.9634 H         1 <0>         0.1361
     76 H34        21.0196  -12.6656   -9.0414 H         1 <0>         0.1412
     77 H35        22.7387  -12.7115   -7.2463 H         1 <0>         0.1455
     78 H36        22.6647  -14.4995   -5.5543 H         1 <0>         0.1651
     79 H37        19.2968  -16.1693   -7.3135 H         1 <0>         0.1538
     80 H38        18.3100  -16.3090   -8.9512 H         1 <0>         0.3893
     81 H39        17.0324  -13.2660  -10.7157 H         1 <0>         0.4264
@<TRIPOS>BOND
     1    1    2 1
     2    1   44 1
     3    1   45 1
     4    1   46 1
     5    2    3 1
     6    2   47 1
     7    2   48 1
     8    3    4 1
     9    3   49 1
    10    3   50 1
    11    4    5 1
    12    4   51 1
    13    4   52 1
    14    5    6 1
    15    5   53 1
    16    5   54 1
    17    6    7 1
    18    6   55 1
    19    6   56 1
    20    7    8 1
    21    7   57 1
    22    7   58 1
    23    8    9 1
    24    8   59 1
    25    8   60 1
    26    9   14 1
    27    9   10 am
    28   10   11 2
    29   10   12 am
    30   12   13 1
    31   12   15 1
    32   13   14 2
    33   15   20 ar
    34   15   16 ar
    35   16   17 ar
    36   16   61 1
    37   17   18 ar
    38   17   62 1
    39   18   19 ar
    40   18   21 1
    41   19   20 ar
    42   19   63 1
    43   20   64 1
    44   21   22 2
    45   21   23 2
    46   21   24 1
    47   24   25 1
    48   25   30 ar
    49   25   26 ar
    50   26   27 ar
    51   26   65 1
    52   27   28 ar
    53   27   66 1
    54   28   29 ar
    55   28   31 1
    56   29   30 ar
    57   29   67 1
    58   30   68 1
    59   31   32 1
    60   31   69 1
    61   31   70 1
    62   32   33 1
    63   32   71 1
    64   32   72 1
    65   33   34 1
    66   33   73 1
    67   33   81 1
    68   34   35 1
    69   34   74 1
    70   34   75 1
    71   35   36 1
    72   35   37 1
    73   35   43 1
    74   37   42 ar
    75   37   38 ar
    76   38   39 ar
    77   38   76 1
    78   39   40 ar
    79   39   77 1
    80   40   41 ar
    81   40   78 1
    82   41   42 ar
    83   42   79 1
    84   43   80 1
@<TRIPOS>MOLECULE
CHEMBL291467
   67    70     0     0     0
SMALL
USER_CHARGES

@<TRIPOS>ATOM
      1 C1         -0.7015    1.0714   -0.5649 C.3       1 <0>        -0.1559
      2 C2         -0.6207   -0.4556   -0.5145 C.3       1 <0>        -0.1265
      3 C3          0.1489   -0.8847    0.7363 C.3       1 <0>        -0.1216
      4 C4          0.2296   -2.4117    0.7867 C.3       1 <0>        -0.1222
      5 C5          0.9992   -2.8407    2.0375 C.3       1 <0>        -0.1211
      6 C6          1.0800   -4.3678    2.0879 C.3       1 <0>        -0.1219
      7 C7          1.8495   -4.7968    3.3387 C.3       1 <0>        -0.1190
      8 C8          1.9303   -6.3238    3.3891 C.3       1 <0>        -0.1095
      9 C9          2.6883   -6.7464    4.6211 C.ar      1 <0>         0.1843
     10 C10         4.0678   -6.7979    4.5882 C.ar      1 <0>        -0.1209
     11 C11         4.7610   -7.1880    5.7262 C.ar      1 <0>         0.0189
     12 C12         4.0386   -7.5133    6.8603 C.ar      1 <0>        -0.1129
     13 C13         2.6502   -7.4390    6.8224 C.ar      1 <0>         0.4043
     14 N1          2.0256   -7.0572    5.7187 N.ar      1 <0>        -0.4581
     15 N2          1.9114   -7.7632    7.9554 N.pl3     1 <0>        -0.6021
     16 C14         1.5990   -6.8375    9.0474 C.3       1 <0>         0.1194
     17 C15         0.7721   -7.6600   10.0491 C.3       1 <0>        -0.0874
     18 C16         0.6772   -9.0344    9.4255 C.ar      1 <0>        -0.1514
     19 C17         1.3538   -9.0171    8.2155 C.ar      1 <0>         0.2086
     20 C18         1.3996  -10.1826    7.4480 C.ar      1 <0>        -0.1782
     21 C19         0.7758  -11.3303    7.8890 C.ar      1 <0>         0.0294
     22 C20         0.0999  -11.3357    9.0951 C.ar      1 <0>        -0.6929
     23 C21         0.0580  -10.1880    9.8654 C.ar      1 <0>         0.0408
     24 S1         -0.6969  -12.8044    9.6544 S.o2      1 <0>         2.6918
     25 O1         -1.7954  -12.3906   10.4554 O.2       1 <0>        -0.9433
     26 O2         -0.8563  -13.6389    8.5154 O.2       1 <0>        -0.9418
     27 N3          0.3603  -13.5804   10.6656 N.pl3     1 <0>        -1.0548
     28 C22         1.5929  -14.0234   10.1805 C.ar      1 <0>         0.1377
     29 C23         1.6613  -14.7034    8.9711 C.ar      1 <0>        -0.1537
     30 C24         2.8817  -15.1398    8.4942 C.ar      1 <0>        -0.0966
     31 C25         4.0348  -14.9008    9.2192 C.ar      1 <0>        -0.1246
     32 C26         3.9702  -14.2242   10.4235 C.ar      1 <0>        -0.1022
     33 C27         2.7538  -13.7801   10.9035 C.ar      1 <0>        -0.1280
     34 H1          0.3054    1.4876   -0.5972 H         1 <0>         0.0541
     35 H2         -1.2498    1.3771   -1.4560 H         1 <0>         0.0563
     36 H3         -1.2176    1.4374    0.3227 H         1 <0>         0.0537
     37 H4         -1.6276   -0.8718   -0.4822 H         1 <0>         0.0609
     38 H5         -0.1046   -0.8216   -1.4020 H         1 <0>         0.0615
     39 H6          1.1557   -0.4684    0.7040 H         1 <0>         0.0617
     40 H7         -0.3673   -0.5186    1.6239 H         1 <0>         0.0608
     41 H8         -0.7773   -2.8279    0.8190 H         1 <0>         0.0625
     42 H9          0.7458   -2.7777   -0.1009 H         1 <0>         0.0639
     43 H10         2.0061   -2.4245    2.0052 H         1 <0>         0.0649
     44 H11         0.4831   -2.4747    2.9251 H         1 <0>         0.0621
     45 H12         0.0731   -4.7840    2.1202 H         1 <0>         0.0687
     46 H13         1.5961   -4.7338    1.2003 H         1 <0>         0.0730
     47 H14         2.8564   -4.3806    3.3064 H         1 <0>         0.0807
     48 H15         1.3334   -4.4308    4.2262 H         1 <0>         0.0683
     49 H16         0.9234   -6.7401    3.4214 H         1 <0>         0.1024
     50 H17         2.4464   -6.6899    2.5015 H         1 <0>         0.1277
     51 H18         4.6020   -6.5378    3.6864 H         1 <0>         0.1910
     52 H19         5.8399   -7.2366    5.7259 H         1 <0>         0.1860
     53 H20         4.5458   -7.8210    7.7628 H         1 <0>         0.1872
     54 H21         2.5167   -6.4823    9.5162 H         1 <0>         0.0940
     55 H22         1.0140   -5.9966    8.6747 H         1 <0>         0.0852
     56 H23         1.2828   -7.7132   11.0106 H         1 <0>         0.1066
     57 H24        -0.2211   -7.2271   10.1684 H         1 <0>         0.1047
     58 H25         1.9256  -10.1850    6.5047 H         1 <0>         0.1255
     59 H26         0.8149  -12.2282    7.2900 H         1 <0>         0.1532
     60 H27        -0.4703  -10.1904   10.8073 H         1 <0>         0.1506
     61 H28         0.1236  -13.7272   11.5947 H         1 <0>         0.4303
     62 H29         0.7611  -14.8910    8.4047 H         1 <0>         0.1557
     63 H30         2.9357  -15.6685    7.5540 H         1 <0>         0.1316
     64 H31         4.9878  -15.2437    8.8443 H         1 <0>         0.1272
     65 H32         4.8726  -14.0392   10.9873 H         1 <0>         0.1287
     66 H33         2.7046  -13.2477   11.8419 H         1 <0>         0.1286
     67 H34         1.0568   -7.0085    5.7161 H         1 <0>         0.4421
@<TRIPOS>BOND
     1    1    2 1
     2    1   34 1
     3    1   35 1
     4    1   36 1
     5    2    3 1
     6    2   37 1
     7    2   38 1
     8    3    4 1
     9    3   39 1
    10    3   40 1
    11    4    5 1
    12    4   41 1
    13    4   42 1
    14    5    6 1
    15    5   43 1
    16    5   44 1
    17    6    7 1
    18    6   45 1
    19    6   46 1
    20    7    8 1
    21    7   47 1
    22    7   48 1
    23    8    9 1
    24    8   49 1
    25    8   50 1
    26    9   14 ar
    27    9   10 ar
    28   10   11 ar
    29   10   51 1
    30   11   12 ar
    31   11   52 1
    32   12   13 ar
    33   12   53 1
    34   13   14 ar
    35   13   15 1
    36   14   67 1
    37   15   19 1
    38   15   16 1
    39   16   17 1
    40   16   54 1
    41   16   55 1
    42   17   18 1
    43   17   56 1
    44   17   57 1
    45   18   23 ar
    46   18   19 ar
    47   19   20 ar
    48   20   21 ar
    49   20   58 1
    50   21   22 ar
    51   21   59 1
    52   22   23 ar
    53   22   24 1
    54   23   60 1
    55   24   25 2
    56   24   26 2
    57   24   27 1
    58   27   28 1
    59   27   61 1
    60   28   33 ar
    61   28   29 ar
    62   29   30 ar
    63   29   62 1
    64   30   31 ar
    65   30   63 1
    66   31   32 ar
    67   31   64 1
    68   32   33 ar
    69   32   65 1
    70   33   66 1
@<TRIPOS>MOLECULE
CHEMBL291467__1
   66    69     0     0     0
SMALL
USER_CHARGES

@<TRIPOS>ATOM
      1 C1         -0.2369    2.2101   -0.1775 C.3       1 <0>        -0.1545
      2 C2         -0.1348    0.6836   -0.1653 C.3       1 <0>        -0.1256
      3 C3         -1.5397    0.0787   -0.1324 C.3       1 <0>        -0.1218
      4 C4         -1.4376   -1.4478   -0.1201 C.3       1 <0>        -0.1202
      5 C5         -2.8425   -2.0528   -0.0873 C.3       1 <0>        -0.1204
      6 C6         -2.7404   -3.5793   -0.0750 C.3       1 <0>        -0.1191
      7 C7         -4.1453   -4.1842   -0.0421 C.3       1 <0>        -0.1108
      8 C8         -4.0432   -5.7107   -0.0299 C.3       1 <0>        -0.0707
      9 C9         -5.4270   -6.3066    0.0025 C.ar      1 <0>         0.1484
     10 C10        -5.7975   -7.2221   -0.9625 C.ar      1 <0>        -0.1645
     11 C11        -7.0737   -7.7678   -0.9278 C.ar      1 <0>        -0.0628
     12 C12        -7.9342   -7.3712    0.0803 C.ar      1 <0>        -0.1622
     13 C13        -7.4942   -6.4445    1.0196 C.ar      1 <0>         0.3593
     14 N1         -6.2670   -5.9507    0.9556 N.ar      1 <0>        -0.4805
     15 N2         -8.3489   -6.0369    2.0384 N.pl3     1 <0>        -0.5694
     16 C14        -8.5348   -6.7405    3.3102 C.3       1 <0>         0.1225
     17 C15        -9.5663   -5.9052    4.0860 C.3       1 <0>        -0.0812
     18 C16        -9.8957   -4.7543    3.1621 C.ar      1 <0>        -0.1826
     19 C17        -9.1508   -4.8940    2.0011 C.ar      1 <0>         0.2598
     20 C18        -9.2834   -3.9383    0.9918 C.ar      1 <0>        -0.1851
     21 C19       -10.1406   -2.8707    1.1536 C.ar      1 <0>         0.0295
     22 C20       -10.8756   -2.7383    2.3171 C.ar      1 <0>        -0.7200
     23 C21       -10.7568   -3.6856    3.3175 C.ar      1 <0>         0.0404
     24 S1        -11.9691   -1.3716    2.5203 S.o2      1 <0>         2.6952
     25 O1        -12.0350   -1.1081    3.9151 O.2       1 <0>        -0.9535
     26 O2        -11.5684   -0.3872    1.5771 O.2       1 <0>        -0.9512
     27 N3        -13.4775   -1.8792    2.0627 N.pl3     1 <0>        -1.0587
     28 C22       -13.7030   -2.3058    0.7520 C.ar      1 <0>         0.1450
     29 C23       -13.2166   -1.5620   -0.3156 C.ar      1 <0>        -0.1529
     30 C24       -13.4409   -1.9870   -1.6104 C.ar      1 <0>        -0.0968
     31 C25       -14.1493   -3.1513   -1.8447 C.ar      1 <0>        -0.1279
     32 C26       -14.6350   -3.8941   -0.7842 C.ar      1 <0>        -0.1030
     33 C27       -14.4093   -3.4779    0.5132 C.ar      1 <0>        -0.1292
     34 H1          0.7640    2.6411   -0.2009 H         1 <0>         0.0533
     35 H2         -0.7910    2.5301   -1.0600 H         1 <0>         0.0534
     36 H3         -0.7566    2.5467    0.7196 H         1 <0>         0.0536
     37 H4          0.3848    0.3470   -1.0624 H         1 <0>         0.0600
     38 H5          0.4193    0.3636    0.7172 H         1 <0>         0.0601
     39 H6         -2.0594    0.4153    0.7647 H         1 <0>         0.0609
     40 H7         -2.0938    0.3987   -1.0148 H         1 <0>         0.0607
     41 H8         -0.9180   -1.7844   -1.0172 H         1 <0>         0.0605
     42 H9         -0.8835   -1.7678    0.7623 H         1 <0>         0.0606
     43 H10        -3.3621   -1.7162    0.8098 H         1 <0>         0.0615
     44 H11        -3.3966   -1.7328   -0.9697 H         1 <0>         0.0607
     45 H12        -2.2208   -3.9159   -0.9721 H         1 <0>         0.0616
     46 H13        -2.1863   -3.8993    0.8074 H         1 <0>         0.0624
     47 H14        -4.6649   -3.8476    0.8550 H         1 <0>         0.0724
     48 H15        -4.6994   -3.8642   -0.9246 H         1 <0>         0.0596
     49 H16        -3.5236   -6.0473   -0.9270 H         1 <0>         0.0823
     50 H17        -3.4891   -6.0307    0.8526 H         1 <0>         0.0842
     51 H18        -5.1018   -7.5104   -1.7366 H         1 <0>         0.1414
     52 H19        -7.3877   -8.4855   -1.6713 H         1 <0>         0.1428
     53 H20        -8.9341   -7.7754    0.1369 H         1 <0>         0.1376
     54 H21        -8.9178   -7.7456    3.1339 H         1 <0>         0.0779
     55 H22        -7.5941   -6.7845    3.8591 H         1 <0>         0.0766
     56 H23       -10.4589   -6.4967    4.2898 H         1 <0>         0.0930
     57 H24        -9.1341   -5.5348    5.0156 H         1 <0>         0.0931
     58 H25        -8.7118   -4.0357    0.0806 H         1 <0>         0.1234
     59 H26       -10.2379   -2.1350    0.3689 H         1 <0>         0.1423
     60 H27       -11.3296   -3.5831    4.2273 H         1 <0>         0.1388
     61 H28       -14.2045   -1.8803    2.7049 H         1 <0>         0.4264
     62 H29       -12.6639   -0.6523   -0.1334 H         1 <0>         0.1555
     63 H30       -13.0630   -1.4092   -2.4409 H         1 <0>         0.1297
     64 H31       -14.3240   -3.4810   -2.8582 H         1 <0>         0.1248
     65 H32       -15.1879   -4.8029   -0.9707 H         1 <0>         0.1264
     66 H33       -14.7850   -4.0609    1.3410 H         1 <0>         0.1274
@<TRIPOS>BOND
     1    1    2 1
     2    1   34 1
     3    1   35 1
     4    1   36 1
     5    2    3 1
     6    2   37 1
     7    2   38 1
     8    3    4 1
     9    3   39 1
    10    3   40 1
    11    4    5 1
    12    4   41 1
    13    4   42 1
    14    5    6 1
    15    5   43 1
    16    5   44 1
    17    6    7 1
    18    6   45 1
    19    6   46 1
    20    7    8 1
    21    7   47 1
    22    7   48 1
    23    8    9 1
    24    8   49 1
    25    8   50 1
    26    9   14 ar
    27    9   10 ar
    28   10   11 ar
    29   10   51 1
    30   11   12 ar
    31   11   52 1
    32   12   13 ar
    33   12   53 1
    34   13   14 ar
    35   13   15 1
    36   15   19 1
    37   15   16 1
    38   16   17 1
    39   16   54 1
    40   16   55 1
    41   17   18 1
    42   17   56 1
    43   17   57 1
    44   18   23 ar
    45   18   19 ar
    46   19   20 ar
    47   20   21 ar
    48   20   58 1
    49   21   22 ar
    50   21   59 1
    51   22   23 ar
    52   22   24 1
    53   23   60 1
    54   24   25 2
    55   24   26 2
    56   24   27 1
    57   27   28 1
    58   27   61 1
    59   28   33 ar
    60   28   29 ar
    61   29   30 ar
    62   29   62 1
    63   30   31 ar
    64   30   63 1
    65   31   32 ar
    66   31   64 1
    67   32   33 ar
    68   32   65 1
    69   33   66 1
@<TRIPOS>MOLECULE
CHEMBL271765
   47    49     0     0     0
SMALL
USER_CHARGES

@<TRIPOS>ATOM
      1 C1         -0.0167    1.3777    0.0096 C.ar      1 <0>        -0.0979
      2 C2          1.1710    2.0855    0.0021 C.ar      1 <0>        -0.0980
      3 C3          2.3777    1.4116   -0.0130 C.ar      1 <0>        -0.1293
      4 C4          2.3977    0.0294   -0.0210 C.ar      1 <0>        -0.0996
      5 C5          1.2098   -0.6793   -0.0135 C.ar      1 <0>        -0.0304
      6 C6          0.0021   -0.0041    0.0020 C.ar      1 <0>        -0.0925
      7 Cl1         1.2341   -2.4151   -0.0242 Cl        1 <0>        -0.0495
      8 C7          3.6718    2.1839   -0.0212 C.3       1 <0>         0.1363
      9 H1          3.5107    3.1675    0.4199 H         1 <0>         0.1352
     10 C8          4.1605    2.3449   -1.4621 C.3       1 <0>        -0.0434
     11 N1          5.4219    3.0977   -1.4701 N.4       1 <0>        -0.5052
     12 C9          5.8911    3.2523   -2.8536 C.3       1 <0>        -0.0085
     13 C10         7.2049    4.0363   -2.8619 C.3       1 <0>        -0.0932
     14 C11         7.6862    4.1950   -4.2811 C.ar      1 <0>        -0.1328
     15 C12         8.5152    3.2374   -4.8383 C.ar      1 <0>        -0.0966
     16 C13         8.9594    3.3765   -6.1369 C.ar      1 <0>        -0.1183
     17 C14         8.5707    4.4864   -6.8891 C.ar      1 <0>         0.0562
     18 C15         7.7342    5.4488   -6.3208 C.ar      1 <0>        -0.1135
     19 C16         7.2927    5.2946   -5.0230 C.ar      1 <0>        -0.0983
     20 C17         9.0431    4.6422   -8.2806 C.2       1 <0>        -0.2083
     21 C18         8.7782    5.6633   -9.1813 C.2       1 <0>        -0.1094
     22 C19         9.3286    5.5988  -10.4282 C.2       1 <0>        -0.1674
     23 C20        10.1339    4.5109  -10.7463 C.2       1 <0>        -0.1177
     24 S1         10.1072    3.5684   -9.2302 S.3       1 <0>         0.1034
     25 C21        10.8071    4.2263  -11.9595 C.2       1 <0>         0.5408
     26 O1         10.7156    4.9984  -12.9065 O.co2     1 <0>        -0.6606
     27 O2         11.4809    3.2081  -12.0621 O.co2     1 <0>        -0.6718
     28 O3          4.6537    1.4761    0.7385 O.3       1 <0>        -0.5469
     29 H2         -0.9592    1.9048    0.0259 H         1 <0>         0.1423
     30 H3          1.1559    3.1654    0.0076 H         1 <0>         0.1353
     31 H4          3.3407   -0.4970   -0.0336 H         1 <0>         0.1337
     32 H5         -0.9257   -0.5568    0.0079 H         1 <0>         0.1425
     33 H6          4.3215    1.3613   -1.9032 H         1 <0>         0.1374
     34 H7          3.4115    2.8848   -2.0416 H         1 <0>         0.1458
     35 H8          5.2728    4.0082   -1.0618 H         1 <0>         0.4285
     36 H9          6.0522    2.2687   -3.2947 H         1 <0>         0.1337
     37 H10         5.1422    3.7921   -3.4330 H         1 <0>         0.1341
     38 H11         7.0438    5.0200   -2.4208 H         1 <0>         0.0932
     39 H12         7.9539    3.4965   -2.2824 H         1 <0>         0.0935
     40 H13         8.8154    2.3794   -4.2551 H         1 <0>         0.1239
     41 H14         9.6067    2.6286   -6.5705 H         1 <0>         0.1305
     42 H15         7.4301    6.3100   -6.8972 H         1 <0>         0.1303
     43 H16         6.6419    6.0361   -4.5835 H         1 <0>         0.1233
     44 H17         8.1475    6.4940   -8.9009 H         1 <0>         0.1265
     45 H18         9.1422    6.3770  -11.1535 H         1 <0>         0.1417
     46 H19         4.8478    0.5905    0.4023 H         1 <0>         0.3893
     47 H20         6.1152    2.5980   -0.9337 H         1 <0>         0.4314
@<TRIPOS>BOND
     1    1    6 ar
     2    1    2 ar
     3    1   29 1
     4    2    3 ar
     5    2   30 1
     6    3    4 ar
     7    3    8 1
     8    4    5 ar
     9    4   31 1
    10    5    6 ar
    11    5    7 1
    12    6   32 1
    13    8    9 1
    14    8   10 1
    15    8   28 1
    16   10   11 1
    17   10   33 1
    18   10   34 1
    19   11   12 1
    20   11   35 1
    21   11   47 1
    22   12   13 1
    23   12   36 1
    24   12   37 1
    25   13   14 1
    26   13   38 1
    27   13   39 1
    28   14   19 ar
    29   14   15 ar
    30   15   16 ar
    31   15   40 1
    32   16   17 ar
    33   16   41 1
    34   17   18 ar
    35   17   20 1
    36   18   19 ar
    37   18   42 1
    38   19   43 1
    39   20   24 1
    40   20   21 2
    41   21   22 1
    42   21   44 1
    43   22   23 2
    44   22   45 1
    45   23   24 1
    46   23   25 1
    47   25   26 2
    48   25   27 1
    49   28   46 1
@<TRIPOS>MOLECULE
CHEMBL295241
   52    55     0     0     0
SMALL
USER_CHARGES

@<TRIPOS>ATOM
      1 C1          0.1473    1.3587    1.4885 C.ar      1 <0>        -0.1276
      2 C2          1.3388    2.0614    1.4828 C.ar      1 <0>        -0.1148
      3 C3          2.5375    1.3913    1.3456 C.ar      1 <0>        -0.1204
      4 C4          2.5459    0.0040    1.2127 C.ar      1 <0>        -0.0289
      5 C5          1.3425   -0.6988    1.2192 C.ar      1 <0>        -0.1206
      6 C6          0.1498   -0.0183    1.3570 C.ar      1 <0>        -0.1149
      7 C7          3.8312   -0.7218    1.0644 C.ar      1 <0>        -0.1086
      8 C8          5.0343   -0.0177    1.0634 C.ar      1 <0>        -0.0578
      9 C9          6.2275   -0.6941    0.9254 C.ar      1 <0>        -0.1915
     10 C10         6.2316   -2.0774    0.7869 C.ar      1 <0>         0.2209
     11 C11         5.0328   -2.7814    0.7871 C.ar      1 <0>        -0.1975
     12 C12         3.8378   -2.1095    0.9316 C.ar      1 <0>        -0.0582
     13 N1          7.4407   -2.7602    0.6468 N.pl3     1 <0>        -0.7394
     14 C13         7.4460   -4.2179    0.5008 C.3       1 <0>         0.0984
     15 C14         8.8879   -4.7116    0.3658 C.3       1 <0>         0.1030
     16 C15         8.8879   -6.2163    0.0888 C.3       1 <0>         0.0449
     17 O1         10.2260   -6.6562   -0.1525 O.3       1 <0>        -0.2181
     18 N2         10.3370   -8.0421   -0.4209 N.2       1 <0>        -0.3429
     19 C16        11.4843   -8.5588   -0.6535 C.2       1 <0>         0.2015
     20 C17        11.6204  -10.0513   -0.8116 C.3       1 <0>        -0.1110
     21 C18        10.8982  -10.7056   -1.9910 C.3       1 <0>        -0.1577
     22 C19        10.3739  -10.9042   -0.5675 C.3       1 <0>        -0.1612
     23 C20        12.6993   -7.6748   -0.7694 C.3       1 <0>        -0.1571
     24 C21        12.5831   -6.4256   -1.6450 C.3       1 <0>        -0.1522
     25 C22        13.4077   -7.6219   -2.1244 C.3       1 <0>        -0.1634
     26 O2          9.5963   -4.4506    1.5792 O.3       1 <0>        -0.5477
     27 H1         -0.7881    1.8868    1.6006 H         1 <0>         0.1210
     28 H2          1.3310    3.1365    1.5855 H         1 <0>         0.1225
     29 H3          3.4671    1.9409    1.3409 H         1 <0>         0.1234
     30 H4          1.3432   -1.7738    1.1162 H         1 <0>         0.1229
     31 H5         -0.7834   -0.5619    1.3625 H         1 <0>         0.1223
     32 H6          5.0316    1.0570    1.1703 H         1 <0>         0.1251
     33 H7          7.1599   -0.1490    0.9246 H         1 <0>         0.1229
     34 H8          5.0380   -3.8559    0.6787 H         1 <0>         0.1212
     35 H9          2.9070   -2.6573    0.9365 H         1 <0>         0.1242
     36 H10         8.2775   -2.2696    0.6462 H         1 <0>         0.4053
     37 H11         6.9869   -4.6727    1.3785 H         1 <0>         0.0679
     38 H12         6.8820   -4.4959   -0.3895 H         1 <0>         0.0730
     39 H13         9.3748   -4.1904   -0.4584 H         1 <0>         0.1130
     40 H14         8.4818   -6.7446    0.9514 H         1 <0>         0.0622
     41 H15         8.2735   -6.4245   -0.7871 H         1 <0>         0.0662
     42 H16        12.5824  -10.4696   -0.5153 H         1 <0>         0.1319
     43 H17        10.3246  -10.0565   -2.6527 H         1 <0>         0.0959
     44 H18        11.3850  -11.5545   -2.4711 H         1 <0>         0.1047
     45 H19        10.5158  -11.8837   -0.1110 H         1 <0>         0.1022
     46 H20         9.4553  -10.3858   -0.2926 H         1 <0>         0.1047
     47 H21        13.3183   -7.6070    0.1252 H         1 <0>         0.1218
     48 H22        11.6279   -6.2431   -2.1373 H         1 <0>         0.0933
     49 H23        13.1257   -5.5355   -1.3265 H         1 <0>         0.0993
     50 H24        14.4929   -7.5188   -2.1213 H         1 <0>         0.1011
     51 H25        12.9950   -8.2264   -2.9321 H         1 <0>         0.0971
     52 H26         9.2179   -4.8839    2.3565 H         1 <0>         0.3779
@<TRIPOS>BOND
     1    1    6 ar
     2    1    2 ar
     3    1   27 1
     4    2    3 ar
     5    2   28 1
     6    3    4 ar
     7    3   29 1
     8    4    5 ar
     9    4    7 1
    10    5    6 ar
    11    5   30 1
    12    6   31 1
    13    7   12 ar
    14    7    8 ar
    15    8    9 ar
    16    8   32 1
    17    9   10 ar
    18    9   33 1
    19   10   11 ar
    20   10   13 1
    21   11   12 ar
    22   11   34 1
    23   12   35 1
    24   13   14 1
    25   13   36 1
    26   14   15 1
    27   14   37 1
    28   14   38 1
    29   15   16 1
    30   15   26 1
    31   15   39 1
    32   16   17 1
    33   16   40 1
    34   16   41 1
    35   17   18 1
    36   18   19 2
    37   19   20 1
    38   19   23 1
    39   20   22 1
    40   20   21 1
    41   20   42 1
    42   21   22 1
    43   21   43 1
    44   21   44 1
    45   22   45 1
    46   22   46 1
    47   23   25 1
    48   23   24 1
    49   23   47 1
    50   24   25 1
    51   24   48 1
    52   24   49 1
    53   25   50 1
    54   25   51 1
    55   26   52 1
@<TRIPOS>MOLECULE
CHEMBL295241__1
   52    55     0     0     0
SMALL
USER_CHARGES

@<TRIPOS>ATOM
      1 C1          0.0196    1.3168    1.4916 C.ar      1 <0>        -0.1276
      2 C2          1.2047    2.0302    1.4886 C.ar      1 <0>        -0.1148
      3 C3          2.4096    1.3710    1.3523 C.ar      1 <0>        -0.1204
      4 C4          2.4308   -0.0159    1.2176 C.ar      1 <0>        -0.0289
      5 C5          1.2337   -0.7295    1.2213 C.ar      1 <0>        -0.1206
      6 C6          0.0347   -0.0600    1.3582 C.ar      1 <0>        -0.1149
      7 C7          3.7227   -0.7299    1.0702 C.ar      1 <0>        -0.1087
      8 C8          4.9195   -0.0150    1.0720 C.ar      1 <0>        -0.0579
      9 C9          6.1190   -0.6805    0.9349 C.ar      1 <0>        -0.1915
     10 C10         6.1356   -2.0635    0.7945 C.ar      1 <0>         0.2210
     11 C11         4.9433   -2.7782    0.7920 C.ar      1 <0>        -0.1976
     12 C12         3.7420   -2.1173    0.9355 C.ar      1 <0>        -0.0582
     13 N1          7.3511   -2.7352    0.6554 N.pl3     1 <0>        -0.7390
     14 C13         7.3698   -4.1925    0.5074 C.3       1 <0>         0.0980
     15 C14         8.8163   -4.6730    0.3739 C.3       1 <0>         0.1030
     16 C15         8.8358   -6.1951    0.2194 C.3       1 <0>         0.0451
     17 O1         10.1885   -6.6557    0.2117 O.3       1 <0>        -0.2183
     18 N2         10.3183   -8.0589    0.0724 N.2       1 <0>        -0.3430
     19 C16        11.4800   -8.5950    0.0515 C.2       1 <0>         0.2016
     20 C17        11.6171  -10.0956    0.0331 C.3       1 <0>        -0.1111
     21 C18        11.0653  -10.8406   -1.1839 C.3       1 <0>        -0.1576
     22 C19        10.3367  -10.9236    0.1589 C.3       1 <0>        -0.1614
     23 C20        12.7110   -7.7257    0.0451 C.3       1 <0>        -0.1595
     24 C21        12.7408   -6.5503   -0.9338 C.3       1 <0>        -0.1483
     25 C22        13.6098   -7.7828   -1.1917 C.3       1 <0>        -0.1643
     26 O2          9.4145   -4.0698   -0.7751 O.3       1 <0>        -0.5474
     27 H1         -0.9207    1.8362    1.6030 H         1 <0>         0.1210
     28 H2          1.1871    3.1050    1.5927 H         1 <0>         0.1225
     29 H3          3.3343    1.9290    1.3497 H         1 <0>         0.1233
     30 H4          1.2443   -1.8044    1.1168 H         1 <0>         0.1229
     31 H5         -0.8936   -0.6120    1.3616 H         1 <0>         0.1223
     32 H6          4.9069    1.0595    1.1803 H         1 <0>         0.1251
     33 H7          7.0464   -0.1270    0.9362 H         1 <0>         0.1229
     34 H8          4.9584   -3.8525    0.6821 H         1 <0>         0.1212
     35 H9          2.8162   -2.6734    0.9384 H         1 <0>         0.1241
     36 H10         8.1834   -2.2370    0.6567 H         1 <0>         0.4059
     37 H11         6.9135   -4.6526    1.3838 H         1 <0>         0.0734
     38 H12         6.8096   -4.4744   -0.3842 H         1 <0>         0.0670
     39 H13         9.3765   -4.3911    1.2655 H         1 <0>         0.1136
     40 H14         8.3012   -6.6518    1.0522 H         1 <0>         0.0675
     41 H15         8.3526   -6.4714   -0.7178 H         1 <0>         0.0607
     42 H16        12.5198  -10.4909    0.4989 H         1 <0>         0.1318
     43 H17        10.6030  -10.2453   -1.9714 H         1 <0>         0.0958
     44 H18        11.6050  -11.7262   -1.5192 H         1 <0>         0.1047
     45 H19        10.3971  -11.8638    0.7070 H         1 <0>         0.1022
     46 H20         9.3951  -10.3829    0.2548 H         1 <0>         0.1047
     47 H21        13.1942   -7.5879    1.0124 H         1 <0>         0.1209
     48 H22        11.8700   -6.4057   -1.5733 H         1 <0>         0.0956
     49 H23        13.2435   -5.6387   -0.6106 H         1 <0>         0.0987
     50 H24        14.6842   -7.6822   -1.0382 H         1 <0>         0.1005
     51 H25        13.3107   -8.4491   -2.0008 H         1 <0>         0.0967
     52 H26         8.9669   -4.2780   -1.6066 H         1 <0>         0.3772
@<TRIPOS>BOND
     1    1    6 ar
     2    1    2 ar
     3    1   27 1
     4    2    3 ar
     5    2   28 1
     6    3    4 ar
     7    3   29 1
     8    4    5 ar
     9    4    7 1
    10    5    6 ar
    11    5   30 1
    12    6   31 1
    13    7   12 ar
    14    7    8 ar
    15    8    9 ar
    16    8   32 1
    17    9   10 ar
    18    9   33 1
    19   10   11 ar
    20   10   13 1
    21   11   12 ar
    22   11   34 1
    23   12   35 1
    24   13   14 1
    25   13   36 1
    26   14   15 1
    27   14   37 1
    28   14   38 1
    29   15   16 1
    30   15   26 1
    31   15   39 1
    32   16   17 1
    33   16   40 1
    34   16   41 1
    35   17   18 1
    36   18   19 2
    37   19   20 1
    38   19   23 1
    39   20   22 1
    40   20   21 1
    41   20   42 1
    42   21   22 1
    43   21   43 1
    44   21   44 1
    45   22   45 1
    46   22   46 1
    47   23   25 1
    48   23   24 1
    49   23   47 1
    50   24   25 1
    51   24   48 1
    52   24   49 1
    53   25   50 1
    54   25   51 1
    55   26   52 1
@<TRIPOS>MOLECULE
CHEMBL100970
   74    77     0     0     0
SMALL
USER_CHARGES

@<TRIPOS>ATOM
      1 C1          1.0005    1.3797    2.9521 C.ar      1 <0>        -0.1291
      2 C2          1.5808    0.2264    3.4476 C.ar      1 <0>        -0.0982
      3 C3          2.5252   -0.4494    2.7000 C.ar      1 <0>        -0.1192
      4 C4          2.8919    0.0304    1.4495 C.ar      1 <0>         0.1515
      5 C5          2.3073    1.1889    0.9547 C.ar      1 <0>        -0.1435
      6 C6          1.3635    1.8601    1.7073 C.ar      1 <0>        -0.0989
      7 N1          3.8488   -0.6517    0.6898 N.am      1 <0>        -0.6762
      8 C7          3.9365   -1.9945    0.7646 C.2       1 <0>         0.7032
      9 O1          3.1250   -2.6212    1.4182 O.2       1 <0>        -0.5441
     10 N2          4.9236   -2.6426    0.1151 N.am      1 <0>        -0.6859
     11 C8          4.9524   -4.0416    0.1029 C.ar      1 <0>         0.2289
     12 C9          3.7652   -4.7620    0.1032 C.ar      1 <0>        -0.1423
     13 C10         3.7969   -6.1427    0.0912 C.ar      1 <0>         0.0025
     14 C11         5.0092   -6.8078    0.0789 C.ar      1 <0>        -0.6993
     15 C12         6.1931   -6.0934    0.0791 C.ar      1 <0>         0.0014
     16 C13         6.1681   -4.7125    0.0848 C.ar      1 <0>        -0.1690
     17 S1          5.0454   -8.5694    0.0636 S.o2      1 <0>         2.6891
     18 O2          6.3017   -8.9545    0.6044 O.2       1 <0>        -0.9474
     19 O3          3.8116   -9.0058    0.6175 O.2       1 <0>        -0.9446
     20 N3          5.0468   -9.0454   -1.5225 N.pl3     1 <0>        -0.9998
     21 C14         3.7834   -9.2807   -2.2346 C.3       1 <0>         0.1174
     22 C15         3.7793   -8.4474   -3.5201 C.3       1 <0>        -0.1284
     23 C16         5.0316   -8.7721   -4.3377 C.3       1 <0>        -0.1132
     24 C17         6.2792   -8.4076   -3.5297 C.3       1 <0>        -0.1488
     25 C18         6.3115   -9.2345   -2.2461 C.3       1 <0>         0.1198
     26 C19         5.0138   -7.9672   -5.6387 C.3       1 <0>        -0.0070
     27 N4          6.1520   -8.3664   -6.4772 N.4       1 <0>        -0.5050
     28 C20         6.1349   -7.5936   -7.7263 C.3       1 <0>        -0.0420
     29 C21         7.3204   -8.0094   -8.5996 C.3       1 <0>         0.0853
     30 H1          7.2475   -9.0725   -8.8290 H         1 <0>         0.1368
     31 C22         7.3026   -7.2045   -9.9006 C.3       1 <0>         0.0293
     32 O4          8.3394   -7.6733  -10.7650 O.3       1 <0>        -0.3009
     33 C23         8.4616   -7.0592  -11.9721 C.ar      1 <0>         0.1084
     34 C24         7.6043   -6.0236  -12.3133 C.ar      1 <0>        -0.1914
     35 C25         7.7284   -5.3999  -13.5395 C.ar      1 <0>        -0.1064
     36 C26         8.7105   -5.8088  -14.4294 C.ar      1 <0>         0.0809
     37 C27         9.5683   -6.8438  -14.0878 C.ar      1 <0>        -0.1025
     38 C28         9.4471   -7.4647  -12.8599 C.ar      1 <0>        -0.1256
     39 O5          8.8320   -5.1953  -15.6368 O.3       1 <0>        -0.4956
     40 O6          8.5400   -7.7558   -7.8992 O.3       1 <0>        -0.5429
     41 H2          0.2590    1.9039    3.5367 H         1 <0>         0.1270
     42 H3          1.2954   -0.1460    4.4204 H         1 <0>         0.1286
     43 H4          2.9783   -1.3498    3.0877 H         1 <0>         0.1347
     44 H5          2.5907    1.5647   -0.0173 H         1 <0>         0.1253
     45 H6          0.9086    2.7611    1.3231 H         1 <0>         0.1294
     46 H7          4.4490   -0.1581    0.1092 H         1 <0>         0.4096
     47 H8          5.6142   -2.1393   -0.3440 H         1 <0>         0.4131
     48 H9          2.8180   -4.2431    0.1131 H         1 <0>         0.1480
     49 H10         2.8739   -6.7035    0.0917 H         1 <0>         0.1435
     50 H11         7.1384   -6.6158    0.0698 H         1 <0>         0.1436
     51 H12         7.0931   -4.1550    0.0797 H         1 <0>         0.1380
     52 H13         3.6962  -10.3381   -2.4843 H         1 <0>         0.0834
     53 H14         2.9468   -8.9821   -1.6029 H         1 <0>         0.1034
     54 H15         2.8910   -8.6854   -4.1051 H         1 <0>         0.0905
     55 H16         3.7752   -7.3873   -3.2664 H         1 <0>         0.0815
     56 H17         5.0477   -9.8370   -4.5699 H         1 <0>         0.1021
     57 H18         7.1701   -8.6173   -4.1216 H         1 <0>         0.0733
     58 H19         6.2515   -7.3479   -3.2760 H         1 <0>         0.0858
     59 H20         7.1423   -8.9054   -1.6220 H         1 <0>         0.1023
     60 H21         6.4350  -10.2881   -2.4968 H         1 <0>         0.0826
     61 H22         4.0835   -8.1606   -6.1729 H         1 <0>         0.1369
     62 H23         5.0867   -6.9041   -5.4093 H         1 <0>         0.1332
     63 H24         7.0131   -8.1873   -5.9827 H         1 <0>         0.4313
     64 H25         5.2047   -7.7870   -8.2605 H         1 <0>         0.1480
     65 H26         6.2078   -6.5305   -7.4969 H         1 <0>         0.1393
     66 H27         6.3371   -7.3281  -10.3911 H         1 <0>         0.0821
     67 H28         7.4645   -6.1499   -9.6777 H         1 <0>         0.0764
     68 H29         6.8396   -5.7052  -11.6203 H         1 <0>         0.1281
     69 H30         7.0604   -4.5939  -13.8054 H         1 <0>         0.1352
     70 H31        10.3329   -7.1624  -14.7809 H         1 <0>         0.1420
     71 H32        10.1174   -8.2681  -12.5925 H         1 <0>         0.1389
     72 H33         9.4295   -4.4350  -15.6333 H         1 <0>         0.3941
     73 H34         8.6718   -6.8275   -7.6623 H         1 <0>         0.3896
     74 H35         6.0845   -9.3505   -6.6895 H         1 <0>         0.4317
@<TRIPOS>BOND
     1    1    6 ar
     2    1    2 ar
     3    1   41 1
     4    2    3 ar
     5    2   42 1
     6    3    4 ar
     7    3   43 1
     8    4    5 ar
     9    4    7 1
    10    5    6 ar
    11    5   44 1
    12    6   45 1
    13    7    8 am
    14    7   46 1
    15    8    9 2
    16    8   10 am
    17   10   11 1
    18   10   47 1
    19   11   16 ar
    20   11   12 ar
    21   12   13 ar
    22   12   48 1
    23   13   14 ar
    24   13   49 1
    25   14   15 ar
    26   14   17 1
    27   15   16 ar
    28   15   50 1
    29   16   51 1
    30   17   18 2
    31   17   19 2
    32   17   20 1
    33   20   25 1
    34   20   21 1
    35   21   22 1
    36   21   52 1
    37   21   53 1
    38   22   23 1
    39   22   54 1
    40   22   55 1
    41   23   24 1
    42   23   26 1
    43   23   56 1
    44   24   25 1
    45   24   57 1
    46   24   58 1
    47   25   59 1
    48   25   60 1
    49   26   27 1
    50   26   61 1
    51   26   62 1
    52   27   28 1
    53   27   63 1
    54   27   74 1
    55   28   29 1
    56   28   64 1
    57   28   65 1
    58   29   30 1
    59   29   31 1
    60   29   40 1
    61   31   32 1
    62   31   66 1
    63   31   67 1
    64   32   33 1
    65   33   38 ar
    66   33   34 ar
    67   34   35 ar
    68   34   68 1
    69   35   36 ar
    70   35   69 1
    71   36   37 ar
    72   36   39 1
    73   37   38 ar
    74   37   70 1
    75   38   71 1
    76   39   72 1
    77   40   73 1
@<TRIPOS>MOLECULE
CHEMBL143463
   82    85     0     0     0
SMALL
USER_CHARGES

@<TRIPOS>ATOM
      1 C1         -0.0224    1.4861    0.0218 C.3       1 <0>        -0.1790
      2 C2         -0.0004   -0.0437    0.0050 C.3       1 <0>         0.0549
      3 C3          0.7396   -0.5567    1.2419 C.3       1 <0>        -0.1796
      4 C4         -1.4354   -0.5744    0.0125 C.3       1 <0>        -0.1787
      5 N1          0.6879   -0.5102   -1.2060 N.4       1 <0>        -0.4984
      6 C5          2.0657   -0.0006   -1.2132 C.3       1 <0>        -0.0510
      7 C6          2.7825   -0.4865   -2.4745 C.3       1 <0>         0.0875
      8 C7          4.2513   -0.0612   -2.4222 C.3       1 <0>         0.0277
      9 O1          4.9472   -0.6133   -3.5415 O.3       1 <0>        -0.2854
     10 C8          6.2733   -0.3290   -3.6457 C.ar      1 <0>         0.1865
     11 C9          6.8931    0.4599   -2.6878 C.ar      1 <0>        -0.2128
     12 C10         8.2415    0.7454   -2.7986 C.ar      1 <0>        -0.0395
     13 C11         8.9782    0.2492   -3.8559 C.ar      1 <0>        -0.1760
     14 C12         8.3711   -0.5446   -4.8245 C.ar      1 <0>         0.1978
     15 C13         7.0121   -0.8322   -4.7079 C.ar      1 <0>        -0.1657
     16 S1          6.2372   -1.8358   -5.9357 S.3       1 <0>        -0.0417
     17 C14         7.2190   -1.4693   -7.4218 C.3       1 <0>        -0.1397
     18 C15         8.6767   -1.4669   -7.0501 C.2       1 <0>         0.5240
     19 O2          9.4776   -1.8674   -7.8683 O.2       1 <0>        -0.5010
     20 N2          9.1329   -1.0398   -5.8797 N.am      1 <0>        -0.5423
     21 C16        10.5812   -1.1147   -5.6721 C.3       1 <0>         0.1018
     22 C17        11.2439    0.1402   -6.2439 C.3       1 <0>        -0.1704
     23 C18        12.7565    0.0621   -6.0271 C.3       1 <0>        -0.0050
     24 N3         13.3928    1.2669   -6.5761 N.4       1 <0>        -0.3776
     25 C19        13.1999    1.3002   -8.0314 C.3       1 <0>        -0.0274
     26 C20        13.7623    2.6114   -8.5903 C.3       1 <0>         0.1247
     27 N4         15.1635    2.7385   -8.1604 N.pl3     1 <0>        -0.6632
     28 C21        15.4701    2.5557   -6.7333 C.3       1 <0>         0.1234
     29 C22        14.8270    1.2472   -6.2621 C.3       1 <0>        -0.0225
     30 C23        16.1760    3.0257   -9.0830 C.ar      1 <0>         0.1087
     31 C24        16.5195    4.3428   -9.3512 C.ar      1 <0>        -0.0783
     32 C25        17.5201    4.6238  -10.2624 C.ar      1 <0>        -0.1455
     33 C26        18.1806    3.5951  -10.9081 C.ar      1 <0>        -0.0666
     34 C27        17.8436    2.2798  -10.6458 C.ar      1 <0>        -0.2013
     35 C28        16.8457    1.9896   -9.7303 C.ar      1 <0>         0.1240
     36 O3         16.5168    0.6963   -9.4675 O.3       1 <0>        -0.3198
     37 C29        17.2455   -0.3137  -10.1682 C.3       1 <0>         0.0223
     38 O4          2.1612    0.0871   -3.6265 O.3       1 <0>        -0.5395
     39 H1          0.9999    1.8642    0.0165 H         1 <0>         0.0795
     40 H2         -0.5496    1.8516   -0.8594 H         1 <0>         0.0840
     41 H3         -0.5331    1.8323    0.9204 H         1 <0>         0.1084
     42 H4          0.2289   -0.2106    2.1405 H         1 <0>         0.1085
     43 H5          0.7553   -1.6466    1.2300 H         1 <0>         0.0842
     44 H6          1.7619   -0.1786    1.2366 H         1 <0>         0.0800
     45 H7         -1.9626   -0.2089   -0.8687 H         1 <0>         0.0841
     46 H8         -1.4197   -1.6642    0.0006 H         1 <0>         0.0840
     47 H9         -1.9461   -0.2282    0.9111 H         1 <0>         0.1089
     48 H10         0.7024   -1.5190   -1.2171 H         1 <0>         0.4293
     49 H11         2.0500    1.0892   -1.2012 H         1 <0>         0.1423
     50 H12         2.5929   -0.3661   -0.3320 H         1 <0>         0.1478
     51 H13         2.7208   -1.5733   -2.5317 H         1 <0>         0.1357
     52 H14         4.3160    1.0264   -2.4547 H         1 <0>         0.0817
     53 H15         4.7021   -0.4246   -1.4988 H         1 <0>         0.0862
     54 H16         6.3238    0.8501   -1.8570 H         1 <0>         0.1380
     55 H17         8.7220    1.3614   -2.0529 H         1 <0>         0.1411
     56 H18        10.0308    0.4785   -3.9318 H         1 <0>         0.1339
     57 H19         7.0359   -2.2325   -8.1782 H         1 <0>         0.1565
     58 H20         6.9397   -0.4906   -7.8121 H         1 <0>         0.1290
     59 H21        10.7923   -1.1828   -4.6049 H         1 <0>         0.1029
     60 H22        10.9756   -1.9962   -6.1775 H         1 <0>         0.1092
     61 H23        11.0329    0.2084   -7.3111 H         1 <0>         0.0978
     62 H24        10.8495    1.0218   -5.7385 H         1 <0>         0.0921
     63 H25        12.9675   -0.0061   -4.9599 H         1 <0>         0.1341
     64 H26        13.1509   -0.8195   -6.5325 H         1 <0>         0.1344
     65 H27        13.7210    0.4580   -8.4865 H         1 <0>         0.1353
     66 H28        12.1358    1.2351   -8.2586 H         1 <0>         0.1321
     67 H29        13.7131    2.5964   -9.6791 H         1 <0>         0.1136
     68 H30        13.1837    3.4514   -8.2061 H         1 <0>         0.0757
     69 H31        16.5499    2.5039   -6.5944 H         1 <0>         0.1147
     70 H32        15.0639    3.3901   -6.1616 H         1 <0>         0.0767
     71 H33        14.9619    1.1430   -5.1855 H         1 <0>         0.1347
     72 H34        15.2989    0.4065   -6.7707 H         1 <0>         0.1344
     73 H35        16.0049    5.1483   -8.8484 H         1 <0>         0.1311
     74 H36        17.7865    5.6495  -10.4707 H         1 <0>         0.1323
     75 H37        18.9616    3.8193  -11.6196 H         1 <0>         0.1330
     76 H38        18.3615    1.4786  -11.1520 H         1 <0>         0.1338
     77 H39        17.1016   -0.1871  -11.2412 H         1 <0>         0.0600
     78 H40        18.3058   -0.2272   -9.9311 H         1 <0>         0.0602
     79 H41        16.8848   -1.2971   -9.8668 H         1 <0>         0.1014
     80 H42         2.1791    1.0538   -3.6426 H         1 <0>         0.3899
     81 H43         0.1999   -0.1718   -2.0217 H         1 <0>         0.4328
     82 H44        12.9708    2.0858   -6.1646 H         1 <0>         0.4191
@<TRIPOS>BOND
     1    1    2 1
     2    1   39 1
     3    1   40 1
     4    1   41 1
     5    2    3 1
     6    2    4 1
     7    2    5 1
     8    3   42 1
     9    3   43 1
    10    3   44 1
    11    4   45 1
    12    4   46 1
    13    4   47 1
    14    5    6 1
    15    5   48 1
    16    5   81 1
    17    6    7 1
    18    6   49 1
    19    6   50 1
    20    7    8 1
    21    7   38 1
    22    7   51 1
    23    8    9 1
    24    8   52 1
    25    8   53 1
    26    9   10 1
    27   10   15 ar
    28   10   11 ar
    29   11   12 ar
    30   11   54 1
    31   12   13 ar
    32   12   55 1
    33   13   14 ar
    34   13   56 1
    35   14   20 1
    36   14   15 ar
    37   15   16 1
    38   16   17 1
    39   17   18 1
    40   17   57 1
    41   17   58 1
    42   18   19 2
    43   18   20 am
    44   20   21 1
    45   21   22 1
    46   21   59 1
    47   21   60 1
    48   22   23 1
    49   22   61 1
    50   22   62 1
    51   23   24 1
    52   23   63 1
    53   23   64 1
    54   24   29 1
    55   24   25 1
    56   24   82 1
    57   25   26 1
    58   25   65 1
    59   25   66 1
    60   26   27 1
    61   26   67 1
    62   26   68 1
    63   27   28 1
    64   27   30 1
    65   28   29 1
    66   28   69 1
    67   28   70 1
    68   29   71 1
    69   29   72 1
    70   30   35 ar
    71   30   31 ar
    72   31   32 ar
    73   31   73 1
    74   32   33 ar
    75   32   74 1
    76   33   34 ar
    77   33   75 1
    78   34   35 ar
    79   34   76 1
    80   35   36 1
    81   36   37 1
    82   37   77 1
    83   37   78 1
    84   37   79 1
    85   38   80 1
@<TRIPOS>MOLECULE
CHEMBL143463__1
   81    84     0     0     0
SMALL
USER_CHARGES

@<TRIPOS>ATOM
      1 C1         -0.0224    1.4861    0.0218 C.3       1 <0>        -0.1791
      2 C2         -0.0004   -0.0437    0.0050 C.3       1 <0>         0.0548
      3 C3          0.7396   -0.5567    1.2419 C.3       1 <0>        -0.1797
      4 C4         -1.4354   -0.5744    0.0125 C.3       1 <0>        -0.1779
      5 N1          0.6879   -0.5102   -1.2060 N.4       1 <0>        -0.4983
      6 C5          2.0657   -0.0006   -1.2132 C.3       1 <0>        -0.0511
      7 C6          2.7825   -0.4865   -2.4745 C.3       1 <0>         0.0879
      8 C7          4.2513   -0.0612   -2.4222 C.3       1 <0>         0.0286
      9 O1          4.9472   -0.6133   -3.5415 O.3       1 <0>        -0.2874
     10 C8          6.2733   -0.3290   -3.6457 C.ar      1 <0>         0.1793
     11 C9          6.8931    0.4599   -2.6878 C.ar      1 <0>        -0.2196
     12 C10         8.2415    0.7454   -2.7986 C.ar      1 <0>        -0.0398
     13 C11         8.9782    0.2492   -3.8559 C.ar      1 <0>        -0.1688
     14 C12         8.3711   -0.5446   -4.8245 C.ar      1 <0>         0.2088
     15 C13         7.0121   -0.8322   -4.7079 C.ar      1 <0>        -0.1681
     16 S1          6.2372   -1.8358   -5.9357 S.3       1 <0>        -0.0582
     17 C14         7.2190   -1.4693   -7.4218 C.3       1 <0>        -0.1346
     18 C15         8.6767   -1.4669   -7.0501 C.2       1 <0>         0.5198
     19 O2          9.4776   -1.8674   -7.8683 O.2       1 <0>        -0.4984
     20 N2          9.1329   -1.0398   -5.8797 N.am      1 <0>        -0.5412
     21 C16        10.5812   -1.1147   -5.6721 C.3       1 <0>         0.0966
     22 C17        11.2439    0.1402   -6.2439 C.3       1 <0>        -0.1318
     23 C18        12.7565    0.0621   -6.0271 C.3       1 <0>         0.0598
     24 N3         13.3928    1.2669   -6.5761 N.3       1 <0>        -0.5330
     25 C19        13.2441    1.3218   -8.0366 C.3       1 <0>         0.0391
     26 C20        13.7573    2.6719   -8.5485 C.3       1 <0>         0.1546
     27 N4         15.1289    2.8680   -8.0552 N.pl3     1 <0>        -0.6677
     28 C21        15.3827    2.6937   -6.6170 C.3       1 <0>         0.1543
     29 C22        14.8056    1.3427   -6.1811 C.3       1 <0>         0.0419
     30 C23        16.1651    3.2118   -8.9310 C.ar      1 <0>         0.1365
     31 C24        16.4518    4.5461   -9.1795 C.ar      1 <0>        -0.0867
     32 C25        17.4759    4.8831  -10.0445 C.ar      1 <0>        -0.1510
     33 C26        18.2163    3.8931  -10.6636 C.ar      1 <0>        -0.0826
     34 C27        17.9362    2.5609  -10.4207 C.ar      1 <0>        -0.2062
     35 C28        16.9151    2.2149   -9.5512 C.ar      1 <0>         0.1178
     36 O3         16.6419    0.9050   -9.3074 O.3       1 <0>        -0.3064
     37 C29        17.4518   -0.0625   -9.9784 C.3       1 <0>         0.0251
     38 O4          2.1612    0.0871   -3.6265 O.3       1 <0>        -0.5401
     39 H1          0.9999    1.8642    0.0165 H         1 <0>         0.0807
     40 H2         -0.5496    1.8516   -0.8594 H         1 <0>         0.0837
     41 H3         -0.5331    1.8323    0.9204 H         1 <0>         0.1072
     42 H4          0.2289   -0.2106    2.1405 H         1 <0>         0.1073
     43 H5          0.7553   -1.6466    1.2300 H         1 <0>         0.0838
     44 H6          1.7619   -0.1786    1.2366 H         1 <0>         0.0812
     45 H7         -1.9626   -0.2089   -0.8687 H         1 <0>         0.0835
     46 H8         -1.4197   -1.6642    0.0006 H         1 <0>         0.0834
     47 H9         -1.9461   -0.2282    0.9111 H         1 <0>         0.1076
     48 H10         0.7024   -1.5190   -1.2171 H         1 <0>         0.4289
     49 H11         2.0500    1.0892   -1.2012 H         1 <0>         0.1421
     50 H12         2.5929   -0.3661   -0.3320 H         1 <0>         0.1477
     51 H13         2.7208   -1.5733   -2.5317 H         1 <0>         0.1348
     52 H14         4.3160    1.0264   -2.4547 H         1 <0>         0.0800
     53 H15         4.7021   -0.4246   -1.4988 H         1 <0>         0.0838
     54 H16         6.3238    0.8501   -1.8570 H         1 <0>         0.1337
     55 H17         8.7220    1.3614   -2.0529 H         1 <0>         0.1398
     56 H18        10.0308    0.4785   -3.9318 H         1 <0>         0.1432
     57 H19         7.0359   -2.2325   -8.1782 H         1 <0>         0.1522
     58 H20         6.9397   -0.4906   -7.8121 H         1 <0>         0.1263
     59 H21        10.7923   -1.1828   -4.6049 H         1 <0>         0.0924
     60 H22        10.9756   -1.9962   -6.1775 H         1 <0>         0.0980
     61 H23        11.0329    0.2084   -7.3111 H         1 <0>         0.0736
     62 H24        10.8495    1.0218   -5.7385 H         1 <0>         0.0765
     63 H25        12.9675   -0.0061   -4.9599 H         1 <0>         0.0759
     64 H26        13.1509   -0.8195   -6.5325 H         1 <0>         0.0371
     65 H27        13.8217    0.5170   -8.4914 H         1 <0>         0.0409
     66 H28        12.1924    1.2089   -8.2996 H         1 <0>         0.0767
     67 H29        13.7563    2.6745   -9.6385 H         1 <0>         0.0685
     68 H30        13.1167    3.4718   -8.1771 H         1 <0>         0.0549
     69 H31        16.4564    2.7107   -6.4299 H         1 <0>         0.0696
     70 H32        14.8984    3.4956   -6.0599 H         1 <0>         0.0560
     71 H33        14.8863    1.2450   -5.0985 H         1 <0>         0.0768
     72 H34        15.3614    0.5376   -6.6618 H         1 <0>         0.0408
     73 H35        15.8748    5.3214   -8.6974 H         1 <0>         0.1284
     74 H36        17.6981    5.9222  -10.2375 H         1 <0>         0.1252
     75 H37        19.0153    4.1610  -11.3390 H         1 <0>         0.1253
     76 H38        18.5164    1.7901  -10.9060 H         1 <0>         0.1273
     77 H39        17.1292   -1.0647   -9.6964 H         1 <0>         0.0971
     78 H40        17.3491    0.0625  -11.0563 H         1 <0>         0.0545
     79 H41        18.4948    0.0770   -9.6942 H         1 <0>         0.0546
     80 H42         2.1791    1.0538   -3.6426 H         1 <0>         0.3896
     81 H43         0.1999   -0.1718   -2.0217 H         1 <0>         0.4324
@<TRIPOS>BOND
     1    1    2 1
     2    1   39 1
     3    1   40 1
     4    1   41 1
     5    2    3 1
     6    2    4 1
     7    2    5 1
     8    3   42 1
     9    3   43 1
    10    3   44 1
    11    4   45 1
    12    4   46 1
    13    4   47 1
    14    5    6 1
    15    5   48 1
    16    5   81 1
    17    6    7 1
    18    6   49 1
    19    6   50 1
    20    7    8 1
    21    7   38 1
    22    7   51 1
    23    8    9 1
    24    8   52 1
    25    8   53 1
    26    9   10 1
    27   10   15 ar
    28   10   11 ar
    29   11   12 ar
    30   11   54 1
    31   12   13 ar
    32   12   55 1
    33   13   14 ar
    34   13   56 1
    35   14   20 1
    36   14   15 ar
    37   15   16 1
    38   16   17 1
    39   17   18 1
    40   17   57 1
    41   17   58 1
    42   18   19 2
    43   18   20 am
    44   20   21 1
    45   21   22 1
    46   21   59 1
    47   21   60 1
    48   22   23 1
    49   22   61 1
    50   22   62 1
    51   23   24 1
    52   23   63 1
    53   23   64 1
    54   24   29 1
    55   24   25 1
    56   25   26 1
    57   25   65 1
    58   25   66 1
    59   26   27 1
    60   26   67 1
    61   26   68 1
    62   27   28 1
    63   27   30 1
    64   28   29 1
    65   28   69 1
    66   28   70 1
    67   29   71 1
    68   29   72 1
    69   30   35 ar
    70   30   31 ar
    71   31   32 ar
    72   31   73 1
    73   32   33 ar
    74   32   74 1
    75   33   34 ar
    76   33   75 1
    77   34   35 ar
    78   34   76 1
    79   35   36 1
    80   36   37 1
    81   37   77 1
    82   37   78 1
    83   37   79 1
    84   38   80 1
@<TRIPOS>MOLECULE
CHEMBL143463__2
   82    85     0     0     0
SMALL
USER_CHARGES

@<TRIPOS>ATOM
      1 C1         -0.0188    1.4873    0.0200 C.3       1 <0>        -0.1794
      2 C2          0.0024   -0.0425    0.0031 C.3       1 <0>         0.0550
      3 C3          0.7426   -0.5560    1.2397 C.3       1 <0>        -0.1792
      4 C4         -1.4328   -0.5726    0.0110 C.3       1 <0>        -0.1787
      5 N1          0.6901   -0.5093   -1.2082 N.4       1 <0>        -0.4979
      6 C5          2.0681   -0.0004   -1.2159 C.3       1 <0>        -0.0513
      7 C6          2.7843   -0.4865   -2.4775 C.3       1 <0>         0.0874
      8 C7          4.2195    0.0436   -2.4855 C.3       1 <0>         0.0277
      9 O1          4.8518   -0.3122   -3.7166 O.3       1 <0>        -0.2854
     10 C8          6.1412    0.0861   -3.8862 C.ar      1 <0>         0.1866
     11 C9          6.7864    0.7993   -2.8865 C.ar      1 <0>        -0.2129
     12 C10         8.0975    1.2013   -3.0643 C.ar      1 <0>        -0.0394
     13 C11         8.7718    0.8966   -4.2301 C.ar      1 <0>        -0.1760
     14 C12         8.1387    0.1810   -5.2420 C.ar      1 <0>         0.1979
     15 C13         6.8178   -0.2247   -5.0580 C.ar      1 <0>        -0.1660
     16 S1          6.0097   -1.1296   -6.3398 S.3       1 <0>        -0.0403
     17 C14         6.8314   -0.5092   -7.8387 C.3       1 <0>        -0.1406
     18 C15         8.3123   -0.4373   -7.5840 C.2       1 <0>         0.5241
     19 O2          9.0647   -0.6713   -8.5062 O.2       1 <0>        -0.5010
     20 N2          8.8381   -0.1209   -6.4076 N.am      1 <0>        -0.5423
     21 C16        10.3007   -0.1062   -6.3242 C.3       1 <0>         0.1018
     22 C17        10.8239    1.2571   -6.7810 C.3       1 <0>        -0.1704
     23 C18        12.3513    1.2724   -6.6940 C.3       1 <0>        -0.0050
     24 N3         12.8537    2.5813   -7.1326 N.4       1 <0>        -0.3775
     25 C19        12.5334    2.7758   -8.5523 C.3       1 <0>        -0.0274
     26 C20        12.9542    4.1852   -8.9814 C.3       1 <0>         0.1247
     27 N4         14.3754    4.3691   -8.6489 N.pl3     1 <0>        -0.6633
     28 C21        14.8165    4.0391   -7.2848 C.3       1 <0>         0.1234
     29 C22        14.3077    2.6365   -6.9358 C.3       1 <0>        -0.0225
     30 C23        15.2821    4.8450   -9.6031 C.ar      1 <0>         0.1087
     31 C24        15.5101    6.2078   -9.7270 C.ar      1 <0>        -0.0783
     32 C25        16.4063    6.6752  -10.6697 C.ar      1 <0>        -0.1455
     33 C26        17.0770    5.7876  -11.4906 C.ar      1 <0>        -0.0666
     34 C27        16.8548    4.4279  -11.3728 C.ar      1 <0>        -0.2012
     35 C28        15.9623    3.9510  -10.4271 C.ar      1 <0>         0.1240
     36 O3         15.7467    2.6135  -10.3066 O.3       1 <0>        -0.3198
     37 C29        16.4792    1.7566  -11.1848 C.3       1 <0>         0.0222
     38 O4          2.8041   -1.9153   -2.4933 O.3       1 <0>        -0.5408
     39 H1          1.0036    1.8649    0.0143 H         1 <0>         0.0800
     40 H2         -0.5462    1.8531   -0.8610 H         1 <0>         0.0841
     41 H3         -0.5291    1.8336    0.9187 H         1 <0>         0.1084
     42 H4          0.2324   -0.2096    2.1385 H         1 <0>         0.1085
     43 H5          0.7578   -1.6458    1.2276 H         1 <0>         0.0840
     44 H6          1.7651   -0.1783    1.2340 H         1 <0>         0.0796
     45 H7         -1.9602   -0.2068   -0.8700 H         1 <0>         0.0840
     46 H8         -1.4177   -1.6624   -0.0010 H         1 <0>         0.0841
     47 H9         -1.9431   -0.2262    0.9098 H         1 <0>         0.1089
     48 H10         0.7041   -1.5181   -1.2194 H         1 <0>         0.4324
     49 H11         2.0529    1.0895   -1.2038 H         1 <0>         0.1483
     50 H12         2.5954   -0.3662   -0.3349 H         1 <0>         0.1417
     51 H13         2.2569   -0.1207   -3.3585 H         1 <0>         0.1370
     52 H14         4.2066    1.1287   -2.3839 H         1 <0>         0.0864
     53 H15         4.7726   -0.3927   -1.6536 H         1 <0>         0.0816
     54 H16         6.2660    1.0397   -1.9712 H         1 <0>         0.1380
     55 H17         8.5976    1.7581   -2.2857 H         1 <0>         0.1411
     56 H18         9.7957    1.2156   -4.3576 H         1 <0>         0.1339
     57 H19         6.6361   -1.1870   -8.6697 H         1 <0>         0.1565
     58 H20         6.4531    0.4846   -8.0782 H         1 <0>         0.1287
     59 H21        10.6077   -0.2866   -5.2940 H         1 <0>         0.1030
     60 H22        10.7091   -0.8861   -6.9669 H         1 <0>         0.1092
     61 H23        10.5169    1.4374   -7.8112 H         1 <0>         0.0977
     62 H24        10.4155    2.0370   -6.1383 H         1 <0>         0.0921
     63 H25        12.6584    1.0920   -5.6638 H         1 <0>         0.1341
     64 H26        12.7597    0.4925   -7.3367 H         1 <0>         0.1345
     65 H27        13.0694    2.0386   -9.1501 H         1 <0>         0.1353
     66 H28        11.4606    2.6552   -8.7027 H         1 <0>         0.1321
     67 H29        12.8119    4.2988  -10.0561 H         1 <0>         0.1136
     68 H30        12.3550    4.9243   -8.4495 H         1 <0>         0.0757
     69 H31        15.9053    4.0560   -7.2378 H         1 <0>         0.1147
     70 H32        14.4053    4.7633   -6.5816 H         1 <0>         0.0767
     71 H33        14.5424    2.4133   -5.8950 H         1 <0>         0.1348
     72 H34        14.7901    1.9036   -7.5825 H         1 <0>         0.1344
     73 H35        14.9872    6.9033   -9.0872 H         1 <0>         0.1311
     74 H36        16.5828    7.7364  -10.7656 H         1 <0>         0.1323
     75 H37        17.7761    6.1573  -12.2261 H         1 <0>         0.1330
     76 H38        17.3804    3.7373  -12.0156 H         1 <0>         0.1338
     77 H39        16.2344    2.0008  -12.2185 H         1 <0>         0.0600
     78 H40        17.5477    1.8968  -11.0215 H         1 <0>         0.0602
     79 H41        16.2141    0.7185  -10.9841 H         1 <0>         0.1014
     80 H42         3.2586   -2.3107   -1.7368 H         1 <0>         0.3900
     81 H43         0.2019   -0.1707   -2.0238 H         1 <0>         0.4295
     82 H44        12.4140    3.3085   -6.5885 H         1 <0>         0.4191
@<TRIPOS>BOND
     1    1    2 1
     2    1   39 1
     3    1   40 1
     4    1   41 1
     5    2    3 1
     6    2    4 1
     7    2    5 1
     8    3   42 1
     9    3   43 1
    10    3   44 1
    11    4   45 1
    12    4   46 1
    13    4   47 1
    14    5    6 1
    15    5   48 1
    16    5   81 1
    17    6    7 1
    18    6   49 1
    19    6   50 1
    20    7    8 1
    21    7   38 1
    22    7   51 1
    23    8    9 1
    24    8   52 1
    25    8   53 1
    26    9   10 1
    27   10   15 ar
    28   10   11 ar
    29   11   12 ar
    30   11   54 1
    31   12   13 ar
    32   12   55 1
    33   13   14 ar
    34   13   56 1
    35   14   20 1
    36   14   15 ar
    37   15   16 1
    38   16   17 1
    39   17   18 1
    40   17   57 1
    41   17   58 1
    42   18   19 2
    43   18   20 am
    44   20   21 1
    45   21   22 1
    46   21   59 1
    47   21   60 1
    48   22   23 1
    49   22   61 1
    50   22   62 1
    51   23   24 1
    52   23   63 1
    53   23   64 1
    54   24   29 1
    55   24   25 1
    56   24   82 1
    57   25   26 1
    58   25   65 1
    59   25   66 1
    60   26   27 1
    61   26   67 1
    62   26   68 1
    63   27   28 1
    64   27   30 1
    65   28   29 1
    66   28   69 1
    67   28   70 1
    68   29   71 1
    69   29   72 1
    70   30   35 ar
    71   30   31 ar
    72   31   32 ar
    73   31   73 1
    74   32   33 ar
    75   32   74 1
    76   33   34 ar
    77   33   75 1
    78   34   35 ar
    79   34   76 1
    80   35   36 1
    81   36   37 1
    82   37   77 1
    83   37   78 1
    84   37   79 1
    85   38   80 1
@<TRIPOS>MOLECULE
CHEMBL143463__3
   81    84     0     0     0
SMALL
USER_CHARGES

@<TRIPOS>ATOM
      1 C1         -0.0188    1.4873    0.0200 C.3       1 <0>        -0.1796
      2 C2          0.0024   -0.0425    0.0031 C.3       1 <0>         0.0549
      3 C3          0.7426   -0.5560    1.2397 C.3       1 <0>        -0.1792
      4 C4         -1.4328   -0.5726    0.0110 C.3       1 <0>        -0.1779
      5 N1          0.6901   -0.5093   -1.2082 N.4       1 <0>        -0.4978
      6 C5          2.0681   -0.0004   -1.2159 C.3       1 <0>        -0.0514
      7 C6          2.7843   -0.4865   -2.4775 C.3       1 <0>         0.0876
      8 C7          4.2195    0.0436   -2.4855 C.3       1 <0>         0.0286
      9 O1          4.8518   -0.3122   -3.7166 O.3       1 <0>        -0.2874
     10 C8          6.1412    0.0861   -3.8862 C.ar      1 <0>         0.1794
     11 C9          6.7864    0.7993   -2.8865 C.ar      1 <0>        -0.2197
     12 C10         8.0975    1.2013   -3.0643 C.ar      1 <0>        -0.0397
     13 C11         8.7718    0.8966   -4.2301 C.ar      1 <0>        -0.1689
     14 C12         8.1387    0.1810   -5.2420 C.ar      1 <0>         0.2089
     15 C13         6.8178   -0.2247   -5.0580 C.ar      1 <0>        -0.1684
     16 S1          6.0097   -1.1296   -6.3398 S.3       1 <0>        -0.0568
     17 C14         6.8314   -0.5092   -7.8387 C.3       1 <0>        -0.1355
     18 C15         8.3123   -0.4373   -7.5840 C.2       1 <0>         0.5198
     19 O2          9.0647   -0.6713   -8.5062 O.2       1 <0>        -0.4984
     20 N2          8.8381   -0.1209   -6.4076 N.am      1 <0>        -0.5412
     21 C16        10.3007   -0.1062   -6.3242 C.3       1 <0>         0.0966
     22 C17        10.8239    1.2571   -6.7810 C.3       1 <0>        -0.1317
     23 C18        12.3513    1.2724   -6.6940 C.3       1 <0>         0.0598
     24 N3         12.8537    2.5813   -7.1326 N.3       1 <0>        -0.5330
     25 C19        12.5755    2.8012   -8.5581 C.3       1 <0>         0.0391
     26 C20        12.9487    4.2396   -8.9320 C.3       1 <0>         0.1547
     27 N4         14.3413    4.4817   -8.5256 N.pl3     1 <0>        -0.6677
     28 C21        14.7303    4.1546   -7.1454 C.3       1 <0>         0.1543
     29 C22        14.2870    2.7195   -6.8419 C.3       1 <0>         0.0419
     30 C23        15.2717    5.0097   -9.4282 C.ar      1 <0>         0.1364
     31 C24        15.4438    6.3828   -9.5260 C.ar      1 <0>        -0.0867
     32 C25        16.3635    6.9018  -10.4178 C.ar      1 <0>        -0.1510
     33 C26        17.1133    6.0557  -11.2136 C.ar      1 <0>        -0.0826
     34 C27        16.9471    4.6859  -11.1216 C.ar      1 <0>        -0.2062
     35 C28        16.0314    4.1576  -10.2267 C.ar      1 <0>         0.1178
     36 O3         15.8706    2.8104  -10.1315 O.3       1 <0>        -0.3064
     37 C29        16.6835    1.9984  -10.9810 C.3       1 <0>         0.0250
     38 O4          2.8041   -1.9153   -2.4933 O.3       1 <0>        -0.5414
     39 H1          1.0036    1.8649    0.0143 H         1 <0>         0.0813
     40 H2         -0.5462    1.8531   -0.8610 H         1 <0>         0.0839
     41 H3         -0.5291    1.8336    0.9187 H         1 <0>         0.1072
     42 H4          0.2324   -0.2096    2.1385 H         1 <0>         0.1073
     43 H5          0.7578   -1.6458    1.2276 H         1 <0>         0.0835
     44 H6          1.7651   -0.1783    1.2340 H         1 <0>         0.0807
     45 H7         -1.9602   -0.2068   -0.8700 H         1 <0>         0.0835
     46 H8         -1.4177   -1.6624   -0.0010 H         1 <0>         0.0834
     47 H9         -1.9431   -0.2262    0.9098 H         1 <0>         0.1076
     48 H10         0.7041   -1.5181   -1.2194 H         1 <0>         0.4319
     49 H11         2.0529    1.0895   -1.2038 H         1 <0>         0.1483
     50 H12         2.5954   -0.3662   -0.3349 H         1 <0>         0.1414
     51 H13         2.2569   -0.1207   -3.3585 H         1 <0>         0.1364
     52 H14         4.2066    1.1287   -2.3839 H         1 <0>         0.0845
     53 H15         4.7726   -0.3927   -1.6536 H         1 <0>         0.0794
     54 H16         6.2660    1.0397   -1.9712 H         1 <0>         0.1336
     55 H17         8.5976    1.7581   -2.2857 H         1 <0>         0.1397
     56 H18         9.7957    1.2156   -4.3576 H         1 <0>         0.1432
     57 H19         6.6361   -1.1870   -8.6697 H         1 <0>         0.1522
     58 H20         6.4531    0.4846   -8.0782 H         1 <0>         0.1259
     59 H21        10.6077   -0.2866   -5.2940 H         1 <0>         0.0924
     60 H22        10.7091   -0.8861   -6.9669 H         1 <0>         0.0980
     61 H23        10.5169    1.4375   -7.8112 H         1 <0>         0.0736
     62 H24        10.4155    2.0370   -6.1383 H         1 <0>         0.0765
     63 H25        12.6584    1.0920   -5.6638 H         1 <0>         0.0760
     64 H26        12.7597    0.4925   -7.3367 H         1 <0>         0.0371
     65 H27        13.1650    2.1055   -9.1553 H         1 <0>         0.0409
     66 H28        11.5151    2.6387   -8.7511 H         1 <0>         0.0766
     67 H29        12.8530    4.3745  -10.0094 H         1 <0>         0.0684
     68 H30        12.2896    4.9356   -8.4131 H         1 <0>         0.0548
     69 H31        15.8125    4.2332   -7.0416 H         1 <0>         0.0696
     70 H32        14.2425    4.8424   -6.4547 H         1 <0>         0.0560
     71 H33        14.4678    2.4977   -5.7901 H         1 <0>         0.0769
     72 H34        14.8527    2.0250   -7.4629 H         1 <0>         0.0408
     73 H35        14.8591    7.0460   -8.9058 H         1 <0>         0.1284
     74 H36        16.4965    7.9709  -10.4933 H         1 <0>         0.1252
     75 H37        17.8306    6.4656  -11.9092 H         1 <0>         0.1253
     76 H38        17.5345    4.0278  -11.7447 H         1 <0>         0.1274
     77 H39        16.4560    0.9470  -10.8050 H         1 <0>         0.0971
     78 H40        16.4793    2.2447  -12.0230 H         1 <0>         0.0544
     79 H41        17.7353    2.1839  -10.7632 H         1 <0>         0.0546
     80 H42         3.2586   -2.3107   -1.7368 H         1 <0>         0.3892
     81 H43         0.2019   -0.1707   -2.0238 H         1 <0>         0.4292
@<TRIPOS>BOND
     1    1    2 1
     2    1   39 1
     3    1   40 1
     4    1   41 1
     5    2    3 1
     6    2    4 1
     7    2    5 1
     8    3   42 1
     9    3   43 1
    10    3   44 1
    11    4   45 1
    12    4   46 1
    13    4   47 1
    14    5    6 1
    15    5   48 1
    16    5   81 1
    17    6    7 1
    18    6   49 1
    19    6   50 1
    20    7    8 1
    21    7   38 1
    22    7   51 1
    23    8    9 1
    24    8   52 1
    25    8   53 1
    26    9   10 1
    27   10   15 ar
    28   10   11 ar
    29   11   12 ar
    30   11   54 1
    31   12   13 ar
    32   12   55 1
    33   13   14 ar
    34   13   56 1
    35   14   20 1
    36   14   15 ar
    37   15   16 1
    38   16   17 1
    39   17   18 1
    40   17   57 1
    41   17   58 1
    42   18   19 2
    43   18   20 am
    44   20   21 1
    45   21   22 1
    46   21   59 1
    47   21   60 1
    48   22   23 1
    49   22   61 1
    50   22   62 1
    51   23   24 1
    52   23   63 1
    53   23   64 1
    54   24   29 1
    55   24   25 1
    56   25   26 1
    57   25   65 1
    58   25   66 1
    59   26   27 1
    60   26   67 1
    61   26   68 1
    62   27   28 1
    63   27   30 1
    64   28   29 1
    65   28   69 1
    66   28   70 1
    67   29   71 1
    68   29   72 1
    69   30   35 ar
    70   30   31 ar
    71   31   32 ar
    72   31   73 1
    73   32   33 ar
    74   32   74 1
    75   33   34 ar
    76   33   75 1
    77   34   35 ar
    78   34   76 1
    79   35   36 1
    80   36   37 1
    81   37   77 1
    82   37   78 1
    83   37   79 1
    84   38   80 1
@<TRIPOS>MOLECULE
CHEMBL1083368
   66    71     0     0     0
SMALL
USER_CHARGES

@<TRIPOS>ATOM
      1 C1         -0.0168    1.3857    0.0097 C.ar      1 <0>        -0.1430
      2 C2          1.1363    2.1169    0.0026 C.ar      1 <0>        -0.0377
      3 C3          2.3822    1.4660   -0.0128 C.ar      1 <0>        -0.0793
      4 C4          3.5968    2.1738   -0.0211 C.ar      1 <0>        -0.0394
      5 C5          4.7823    1.4966   -0.0369 C.ar      1 <0>        -0.1407
      6 C6          4.8276    0.1074   -0.0447 C.ar      1 <0>         0.0037
      7 C7          3.6516   -0.6280   -0.0370 C.ar      1 <0>        -0.1739
      8 C8          2.4148    0.0559   -0.0206 C.ar      1 <0>         0.0112
      9 C9          1.2107   -0.6844   -0.0131 C.ar      1 <0>        -0.1757
     10 C10         0.0021   -0.0041    0.0020 C.ar      1 <0>         0.0028
     11 C11         1.2851   -2.1528   -0.0221 C.2       1 <0>         0.5748
     12 O1          0.2620   -2.8102   -0.0163 O.2       1 <0>        -0.4956
     13 N1          2.4799   -2.7737   -0.0372 N.am      1 <0>        -0.5621
     14 C12         3.6448   -2.0983   -0.0457 C.2       1 <0>         0.5729
     15 O2          4.6971   -2.7078   -0.0602 O.2       1 <0>        -0.4889
     16 C13         2.5136   -4.2383   -0.0458 C.3       1 <0>         0.0994
     17 C14         2.5114   -4.7400   -1.4912 C.3       1 <0>        -0.1143
     18 C15         1.1838   -4.3708   -2.1593 C.3       1 <0>        -0.1408
     19 C16         1.1561   -4.9441   -3.5778 C.3       1 <0>        -0.0046
     20 N2          1.2877   -6.4049   -3.5216 N.4       1 <0>        -0.3775
     21 C17         2.5894   -6.7661   -2.9476 C.3       1 <0>        -0.0113
     22 C18         2.6722   -6.2629   -1.5049 C.3       1 <0>        -0.1365
     23 C19         1.1825   -6.9571   -4.8788 C.3       1 <0>        -0.0432
     24 C20         1.1942   -8.4855   -4.8099 C.3       1 <0>         0.0859
     25 C21         1.2104   -9.0599   -6.2280 C.3       1 <0>         0.0299
     26 O3          1.3388  -10.4817   -6.1646 O.3       1 <0>        -0.2969
     27 C22         1.3694  -11.1516   -7.3463 C.ar      1 <0>         0.1690
     28 C23         1.2841  -10.4607   -8.5398 C.ar      1 <0>        -0.2424
     29 C24         1.3156  -11.1428   -9.7477 C.ar      1 <0>        -0.0615
     30 C25         1.4315  -12.5152   -9.7780 C.ar      1 <0>        -0.1570
     31 C26         1.5191  -13.2332   -8.5890 C.ar      1 <0>         0.1320
     32 C27         1.4934  -12.5462   -7.3629 C.ar      1 <0>        -0.1321
     33 C28         1.6099  -13.5696   -6.3214 C.2       1 <0>        -0.1881
     34 C29         1.7005  -14.7548   -6.9444 C.2       1 <0>         0.0488
     35 N3          1.6394  -14.5742   -8.3005 N.pl3     1 <0>        -0.5919
     36 H1          1.6848  -15.2842   -8.9599 H         1 <0>         0.4217
     37 O4          0.0255   -8.9405   -4.1251 O.3       1 <0>        -0.5417
     38 H2         -0.9665    1.8997    0.0261 H         1 <0>         0.1431
     39 H3          1.0912    3.1960    0.0084 H         1 <0>         0.1451
     40 H4          3.5922    3.2538   -0.0153 H         1 <0>         0.1453
     41 H5          5.7074    2.0539   -0.0438 H         1 <0>         0.1437
     42 H6          5.7806   -0.4005   -0.0572 H         1 <0>         0.1473
     43 H7         -0.9265   -0.5555    0.0079 H         1 <0>         0.1463
     44 H8          3.4167   -4.5839    0.4573 H         1 <0>         0.1089
     45 H9          1.6373   -4.6250    0.4744 H         1 <0>         0.1058
     46 H10         3.3356   -4.2815   -2.0375 H         1 <0>         0.0946
     47 H11         0.3578   -4.7868   -1.5824 H         1 <0>         0.1011
     48 H12         1.0878   -3.2859   -2.2033 H         1 <0>         0.1044
     49 H13         0.2123   -4.6829   -4.0565 H         1 <0>         0.1319
     50 H14         1.9823   -4.5272   -4.1539 H         1 <0>         0.1277
     51 H15         2.7037   -7.8500   -2.9610 H         1 <0>         0.1355
     52 H16         3.3850   -6.3104   -3.5371 H         1 <0>         0.1308
     53 H17         3.6401   -6.5305   -1.0811 H         1 <0>         0.1189
     54 H18         1.8772   -6.7182   -0.9144 H         1 <0>         0.0955
     55 H19         0.2520   -6.6212   -5.3367 H         1 <0>         0.1394
     56 H20         2.0264   -6.6139   -5.4772 H         1 <0>         0.1434
     57 H21         2.0826   -8.8182   -4.2730 H         1 <0>         0.1336
     58 H22         0.2811   -8.8012   -6.7354 H         1 <0>         0.0770
     59 H23         2.0534   -8.6431   -6.7791 H         1 <0>         0.0808
     60 H24         1.1921   -9.3847   -8.5325 H         1 <0>         0.1239
     61 H25         1.2481  -10.5918  -10.6741 H         1 <0>         0.1311
     62 H26         1.4542  -13.0341  -10.7249 H         1 <0>         0.1258
     63 H27         1.6214  -13.4021   -5.2545 H         1 <0>         0.1484
     64 H28         1.7977  -15.7099   -6.4497 H         1 <0>         0.1755
     65 H29        -0.8044   -8.6803   -4.5478 H         1 <0>         0.3900
     66 H30         0.5506   -6.7861   -2.9476 H         1 <0>         0.4292
@<TRIPOS>BOND
     1    1   10 ar
     2    1    2 ar
     3    1   38 1
     4    2    3 ar
     5    2   39 1
     6    3    8 ar
     7    3    4 ar
     8    4    5 ar
     9    4   40 1
    10    5    6 ar
    11    5   41 1
    12    6    7 ar
    13    6   42 1
    14    7   14 1
    15    7    8 ar
    16    8    9 ar
    17    9   10 ar
    18    9   11 1
    19   10   43 1
    20   11   12 2
    21   11   13 am
    22   13   14 am
    23   13   16 1
    24   14   15 2
    25   16   17 1
    26   16   44 1
    27   16   45 1
    28   17   22 1
    29   17   18 1
    30   17   46 1
    31   18   19 1
    32   18   47 1
    33   18   48 1
    34   19   20 1
    35   19   49 1
    36   19   50 1
    37   20   21 1
    38   20   23 1
    39   20   66 1
    40   21   22 1
    41   21   51 1
    42   21   52 1
    43   22   53 1
    44   22   54 1
    45   23   24 1
    46   23   55 1
    47   23   56 1
    48   24   25 1
    49   24   37 1
    50   24   57 1
    51   25   26 1
    52   25   58 1
    53   25   59 1
    54   26   27 1
    55   27   32 ar
    56   27   28 ar
    57   28   29 ar
    58   28   60 1
    59   29   30 ar
    60   29   61 1
    61   30   31 ar
    62   30   62 1
    63   31   35 1
    64   31   32 ar
    65   32   33 1
    66   33   34 2
    67   33   63 1
    68   34   35 1
    69   34   64 1
    70   35   36 1
    71   37   65 1
@<TRIPOS>MOLECULE
CHEMBL1083368__1
   66    71     0     0     0
SMALL
USER_CHARGES

@<TRIPOS>ATOM
      1 C1         -0.1268    1.7102   -0.6243 C.ar      1 <0>        -0.1426
      2 C2          0.9992    2.4746   -0.7341 C.ar      1 <0>        -0.0379
      3 C3          2.2656    1.8642   -0.7463 C.ar      1 <0>        -0.0793
      4 C4          3.4538    2.6071   -0.8579 C.ar      1 <0>        -0.0393
      5 C5          4.6607    1.9686   -0.8660 C.ar      1 <0>        -0.1410
      6 C6          4.7537    0.5854   -0.7655 C.ar      1 <0>         0.0034
      7 C7          3.6049   -0.1838   -0.6537 C.ar      1 <0>        -0.1739
      8 C8          2.3466    0.4597   -0.6435 C.ar      1 <0>         0.0112
      9 C9          1.1700   -0.3152   -0.5305 C.ar      1 <0>        -0.1756
     10 C10        -0.0602    0.3256   -0.5224 C.ar      1 <0>         0.0031
     11 C11         1.2947   -1.7765   -0.4260 C.2       1 <0>         0.5743
     12 O1          0.2959   -2.4632   -0.3283 O.2       1 <0>        -0.4942
     13 N1          2.5090   -2.3585   -0.4383 N.am      1 <0>        -0.5621
     14 C12         3.6487   -1.6495   -0.5456 C.2       1 <0>         0.5733
     15 O2          4.7202   -2.2246   -0.5526 O.2       1 <0>        -0.4898
     16 C13         2.5930   -3.8172   -0.3320 C.3       1 <0>         0.0997
     17 C14         2.5557   -4.4336   -1.7319 C.3       1 <0>        -0.1147
     18 C15         1.1928   -4.1614   -2.3751 C.3       1 <0>        -0.1391
     19 C16         1.1337   -4.8477   -3.7415 C.3       1 <0>        -0.0110
     20 N2          1.3176   -6.2944   -3.5748 N.4       1 <0>        -0.3773
     21 C17         2.6510   -6.5669   -3.0250 C.3       1 <0>        -0.0037
     22 C18         2.7686   -5.9467   -1.6311 C.3       1 <0>        -0.1379
     23 C19         1.1825   -6.9571   -4.8788 C.3       1 <0>        -0.0432
     24 C20        -0.2555   -6.8086   -5.3798 C.3       1 <0>         0.0861
     25 C21        -0.3949   -7.4940   -6.7406 C.3       1 <0>         0.0302
     26 O3         -1.7040   -7.2562   -7.2619 O.3       1 <0>        -0.2969
     27 C22        -1.9939   -7.8000   -8.4729 C.ar      1 <0>         0.1690
     28 C23        -1.0466   -8.5496   -9.1434 C.ar      1 <0>        -0.2424
     29 C24        -1.3407   -9.1062  -10.3799 C.ar      1 <0>        -0.0615
     30 C25        -2.5772   -8.9217  -10.9584 C.ar      1 <0>        -0.1571
     31 C26        -3.5480   -8.1706  -10.3024 C.ar      1 <0>         0.1320
     32 C27        -3.2567   -7.6095   -9.0469 C.ar      1 <0>        -0.1322
     33 C28        -4.4675   -6.8988   -8.6288 C.2       1 <0>        -0.1880
     34 C29        -5.3765   -7.0667   -9.6018 C.2       1 <0>         0.0487
     35 N3         -4.8418   -7.8174  -10.6146 N.pl3     1 <0>        -0.5919
     36 H1         -5.3084   -8.0714  -11.4262 H         1 <0>         0.4217
     37 O4         -1.1504   -7.4168   -4.4463 O.3       1 <0>        -0.5417
     38 H2         -1.0926    2.1936   -0.6118 H         1 <0>         0.1432
     39 H3          0.9170    3.5486   -0.8121 H         1 <0>         0.1451
     40 H4          3.4120    3.6833   -0.9376 H         1 <0>         0.1452
     41 H5          5.5651    2.5525   -0.9531 H         1 <0>         0.1436
     42 H6          5.7226    0.1085   -0.7747 H         1 <0>         0.1471
     43 H7         -0.9683   -0.2526   -0.4367 H         1 <0>         0.1466
     44 H8          3.5251   -4.0925    0.1614 H         1 <0>         0.1085
     45 H9          1.7500   -4.1883    0.2509 H         1 <0>         0.1056
     46 H10         3.3433   -3.9947   -2.3444 H         1 <0>         0.0945
     47 H11         0.4032   -4.5555   -1.7353 H         1 <0>         0.1017
     48 H12         1.0578   -3.0872   -2.5012 H         1 <0>         0.1040
     49 H13         0.1647   -4.6558   -4.2023 H         1 <0>         0.1331
     50 H14         1.9234   -4.4527   -4.3805 H         1 <0>         0.1279
     51 H15         2.8022   -7.6442   -2.9569 H         1 <0>         0.1341
     52 H16         3.4085   -6.1352   -3.6793 H         1 <0>         0.1301
     53 H17         3.7599   -6.1486   -1.2253 H         1 <0>         0.1189
     54 H18         2.0117   -6.3779   -0.9758 H         1 <0>         0.0946
     55 H19         1.8653   -6.4967   -5.5929 H         1 <0>         0.1437
     56 H20         1.4238   -8.0150   -4.7755 H         1 <0>         0.1396
     57 H21        -0.4982   -5.7506   -5.4793 H         1 <0>         0.1333
     58 H22         0.3487   -7.0910   -7.4282 H         1 <0>         0.0810
     59 H23        -0.2392   -8.5666   -6.6248 H         1 <0>         0.0770
     60 H24        -0.0723   -8.7027   -8.7032 H         1 <0>         0.1239
     61 H25        -0.5920   -9.6902  -10.8944 H         1 <0>         0.1311
     62 H26        -2.7932   -9.3598  -11.9217 H         1 <0>         0.1258
     63 H27        -4.6032   -6.3453   -7.7114 H         1 <0>         0.1483
     64 H28        -6.3778   -6.6620   -9.5918 H         1 <0>         0.1754
     65 H29        -0.9925   -8.3607   -4.3079 H         1 <0>         0.3893
     66 H30         0.6155   -6.6512   -2.9441 H         1 <0>         0.4288
@<TRIPOS>BOND
     1    1   10 ar
     2    1    2 ar
     3    1   38 1
     4    2    3 ar
     5    2   39 1
     6    3    8 ar
     7    3    4 ar
     8    4    5 ar
     9    4   40 1
    10    5    6 ar
    11    5   41 1
    12    6    7 ar
    13    6   42 1
    14    7   14 1
    15    7    8 ar
    16    8    9 ar
    17    9   10 ar
    18    9   11 1
    19   10   43 1
    20   11   12 2
    21   11   13 am
    22   13   14 am
    23   13   16 1
    24   14   15 2
    25   16   17 1
    26   16   44 1
    27   16   45 1
    28   17   22 1
    29   17   18 1
    30   17   46 1
    31   18   19 1
    32   18   47 1
    33   18   48 1
    34   19   20 1
    35   19   49 1
    36   19   50 1
    37   20   21 1
    38   20   23 1
    39   20   66 1
    40   21   22 1
    41   21   51 1
    42   21   52 1
    43   22   53 1
    44   22   54 1
    45   23   24 1
    46   23   55 1
    47   23   56 1
    48   24   25 1
    49   24   37 1
    50   24   57 1
    51   25   26 1
    52   25   58 1
    53   25   59 1
    54   26   27 1
    55   27   32 ar
    56   27   28 ar
    57   28   29 ar
    58   28   60 1
    59   29   30 ar
    60   29   61 1
    61   30   31 ar
    62   30   62 1
    63   31   35 1
    64   31   32 ar
    65   32   33 1
    66   33   34 2
    67   33   63 1
    68   34   35 1
    69   34   64 1
    70   35   36 1
    71   37   65 1
@<TRIPOS>MOLECULE
CHEMBL251541
   67    71     0     0     0
SMALL
USER_CHARGES

@<TRIPOS>ATOM
      1 C1          0.0093    1.4035   -0.0638 C.3       1 <0>        -0.0708
      2 N1          0.0216   -0.0647   -0.0159 N.4       1 <0>        -0.3774
      3 C2         -1.3541   -0.5552    0.1025 C.3       1 <0>         0.0006
      4 C3         -2.0010    0.0762    1.3391 C.3       1 <0>        -0.1315
      5 H1         -1.9775    1.1623    1.2499 H         1 <0>         0.1179
      6 C4         -1.2132   -0.3541    2.5767 C.3       1 <0>        -0.1184
      7 C5          0.2553    0.0617    2.4320 C.3       1 <0>        -0.0947
      8 H2          0.3390    1.1483    2.4473 H         1 <0>         0.1040
      9 C6          0.8306   -0.5049    1.1293 C.3       1 <0>         0.0317
     10 H3          0.8503   -1.5938    1.1741 H         1 <0>         0.1478
     11 C7          2.2463    0.0489    0.9428 C.3       1 <0>        -0.0964
     12 C8          3.0755   -0.1486    2.1814 C.ar      1 <0>        -0.0549
     13 C9          4.4571   -0.0625    2.0590 C.ar      1 <0>        -0.1498
     14 C10         5.2724   -0.2260    3.1597 C.ar      1 <0>        -0.0694
     15 C11         4.7130   -0.4763    4.3981 C.ar      1 <0>        -0.1983
     16 C12         3.3374   -0.5658    4.5242 C.ar      1 <0>         0.1372
     17 C13         2.5143   -0.4064    3.4102 C.ar      1 <0>        -0.1142
     18 C14         1.0302   -0.5410    3.6075 C.3       1 <0>        -0.0623
     19 O1          2.7857   -0.8115    5.7416 O.3       1 <0>        -0.3142
     20 C15         3.6843   -0.9656    6.8420 C.3       1 <0>         0.0237
     21 C16        -3.4290   -0.3906    1.4568 C.2       1 <0>         0.5229
     22 O2         -3.6963   -1.3595    2.1357 O.2       1 <0>        -0.5062
     23 N2         -4.4092    0.2685    0.8077 N.am      1 <0>        -0.6075
     24 C17        -4.0885    1.3686   -0.1125 C.3       1 <0>         0.0847
     25 C18        -4.7130    1.0620   -1.4794 C.3       1 <0>         0.1000
     26 N3         -6.1215    0.6931   -1.2800 N.pl3     1 <0>        -0.6186
     27 C19        -6.4422   -0.4070   -0.3598 C.3       1 <0>         0.1013
     28 C20        -5.8174   -0.1041    1.0027 C.3       1 <0>         0.0939
     29 C21        -7.1373    1.3761   -1.9528 C.ar      1 <0>         0.2608
     30 C22        -6.8339    2.4901   -2.7252 C.ar      1 <0>        -0.1993
     31 C23        -7.8406    3.1628   -3.3895 C.ar      1 <0>        -0.0022
     32 C24        -9.1495    2.7287   -3.2862 C.ar      1 <0>        -0.1029
     33 C25        -9.4550    1.6202   -2.5181 C.ar      1 <0>        -0.0008
     34 C26        -8.4525    0.9397   -1.8555 C.ar      1 <0>        -0.1952
     35 N4        -10.2258    3.4525   -3.9991 N.pl3     1 <0>         0.0391
     36 O3         -9.9602    4.4221   -4.6707 O.2       1 <0>        -0.1657
     37 O4        -11.3706    3.0742   -3.9098 O.3       1 <0>        -0.1637
     38 H4          1.0059    1.7673   -0.3136 H         1 <0>         0.1337
     39 H5         -0.6997    1.7364   -0.8218 H         1 <0>         0.1266
     40 H6         -0.2876    1.7962    0.9087 H         1 <0>         0.1278
     41 H7         -1.9188   -0.2769   -0.7873 H         1 <0>         0.1343
     42 H8         -1.3470   -1.6401    0.2080 H         1 <0>         0.1419
     43 H9         -1.6388    0.1218    3.4602 H         1 <0>         0.1011
     44 H10        -1.2738   -1.4369    2.6859 H         1 <0>         0.1000
     45 H11         2.7235   -0.4643    0.1079 H         1 <0>         0.1026
     46 H12         2.1866    1.1140    0.7189 H         1 <0>         0.1015
     47 H13         4.8969    0.1341    1.0924 H         1 <0>         0.1275
     48 H14         6.3451   -0.1584    3.0538 H         1 <0>         0.1334
     49 H15         5.3463   -0.6018    5.2639 H         1 <0>         0.1360
     50 H16         0.7441   -0.0264    4.5248 H         1 <0>         0.0989
     51 H17         0.7764   -1.5972    3.6981 H         1 <0>         0.0889
     52 H18         3.1152   -1.1568    7.7518 H         1 <0>         0.1073
     53 H19         4.3541   -1.8037    6.6495 H         1 <0>         0.0605
     54 H20         4.2690   -0.0538    6.9640 H         1 <0>         0.0603
     55 H21        -4.4977    2.3013    0.2757 H         1 <0>         0.0890
     56 H22        -3.0069    1.4557   -0.2157 H         1 <0>         0.0872
     57 H23        -4.6526    1.9450   -2.1155 H         1 <0>         0.1056
     58 H24        -4.1806    0.2339   -1.9473 H         1 <0>         0.0733
     59 H25        -7.5238   -0.4941   -0.2566 H         1 <0>         0.1065
     60 H26        -6.0330   -1.3397   -0.7480 H         1 <0>         0.0777
     61 H27        -5.8773   -0.9893    1.6359 H         1 <0>         0.1130
     62 H28        -6.3525    0.7213    1.4722 H         1 <0>         0.0829
     63 H29        -5.8119    2.8298   -2.8060 H         1 <0>         0.1435
     64 H30        -7.6054    4.0292   -3.9899 H         1 <0>         0.1547
     65 H31       -10.4783    1.2840   -2.4393 H         1 <0>         0.1559
     66 H32        -8.6912    0.0715   -1.2590 H         1 <0>         0.1469
     67 H33         0.4289   -0.4214   -0.8673 H         1 <0>         0.4308
@<TRIPOS>BOND
     1    1    2 1
     2    1   38 1
     3    1   39 1
     4    1   40 1
     5    2    9 1
     6    2    3 1
     7    2   67 1
     8    3    4 1
     9    3   41 1
    10    3   42 1
    11    4    5 1
    12    4    6 1
    13    4   21 1
    14    6    7 1
    15    6   43 1
    16    6   44 1
    17    7    8 1
    18    7   18 1
    19    7    9 1
    20    9   10 1
    21    9   11 1
    22   11   12 1
    23   11   45 1
    24   11   46 1
    25   12   17 ar
    26   12   13 ar
    27   13   14 ar
    28   13   47 1
    29   14   15 ar
    30   14   48 1
    31   15   16 ar
    32   15   49 1
    33   16   17 ar
    34   16   19 1
    35   17   18 1
    36   18   50 1
    37   18   51 1
    38   19   20 1
    39   20   52 1
    40   20   53 1
    41   20   54 1
    42   21   22 2
    43   21   23 am
    44   23   28 1
    45   23   24 1
    46   24   25 1
    47   24   55 1
    48   24   56 1
    49   25   26 1
    50   25   57 1
    51   25   58 1
    52   26   27 1
    53   26   29 1
    54   27   28 1
    55   27   59 1
    56   27   60 1
    57   28   61 1
    58   28   62 1
    59   29   34 ar
    60   29   30 ar
    61   30   31 ar
    62   30   63 1
    63   31   32 ar
    64   31   64 1
    65   32   33 ar
    66   32   35 1
    67   33   34 ar
    68   33   65 1
    69   34   66 1
    70   35   36 2
    71   35   37 1
@<TRIPOS>MOLECULE
CHEMBL140908
   44    45     0     0     0
SMALL
USER_CHARGES

@<TRIPOS>ATOM
      1 C1         -0.0187    1.5258    0.0104 C.3       1 <0>        -0.1791
      2 C2          0.0021   -0.0041    0.0020 C.3       1 <0>         0.0549
      3 C3          0.7421   -0.5109    1.2415 C.3       1 <0>        -0.1797
      4 C4         -1.4333   -0.5336    0.0129 C.3       1 <0>        -0.1779
      5 N1          0.6897   -0.4778   -1.2066 N.4       1 <0>        -0.4983
      6 C5          2.0678    0.0307   -1.2170 C.3       1 <0>        -0.0511
      7 C6          2.7840   -0.4628   -2.4758 C.3       1 <0>         0.0879
      8 C7          4.2531   -0.0383   -2.4263 C.3       1 <0>         0.0281
      9 O1          4.9483   -0.5972   -3.5427 O.3       1 <0>        -0.2870
     10 C8          6.2745   -0.3145   -3.6488 C.ar      1 <0>         0.1800
     11 C9          6.8952    0.4792   -2.6954 C.ar      1 <0>        -0.2185
     12 C10         8.2438    0.7630   -2.8083 C.ar      1 <0>        -0.0394
     13 C11         8.9798    0.2604   -3.8630 C.ar      1 <0>        -0.1677
     14 C12         8.3718   -0.5382   -4.8270 C.ar      1 <0>         0.2036
     15 C13         7.0126   -0.8241   -4.7085 C.ar      1 <0>        -0.1687
     16 S1          6.2366   -1.8338   -5.9305 S.3       1 <0>        -0.0551
     17 C14         7.2182   -1.4762   -7.4189 C.3       1 <0>        -0.1356
     18 C15         8.6760   -1.4729   -7.0476 C.2       1 <0>         0.5231
     19 O2          9.4764   -1.8786   -7.8638 O.2       1 <0>        -0.5016
     20 N2          9.1329   -1.0398   -5.8797 N.am      1 <0>        -0.6551
     21 O3          2.1628    0.1050   -3.6307 O.3       1 <0>        -0.5402
     22 H1          1.0039    1.9031    0.0027 H         1 <0>         0.0806
     23 H2         -0.5459    1.8868   -0.8726 H         1 <0>         0.0837
     24 H3         -0.5289    1.8773    0.9072 H         1 <0>         0.1072
     25 H4          0.2319   -0.1594    2.1383 H         1 <0>         0.1073
     26 H5          0.7568   -1.6008    1.2356 H         1 <0>         0.0839
     27 H6          1.7647   -0.1336    1.2338 H         1 <0>         0.0811
     28 H7         -1.9605   -0.1726   -0.8702 H         1 <0>         0.0835
     29 H8         -1.4185   -1.6235    0.0069 H         1 <0>         0.0835
     30 H9         -1.9435   -0.1821    0.9097 H         1 <0>         0.1077
     31 H10         0.7033   -1.4867   -1.2121 H         1 <0>         0.4290
     32 H11         2.0530    1.1205   -1.2110 H         1 <0>         0.1421
     33 H12         2.5950   -0.3304   -0.3340 H         1 <0>         0.1477
     34 H13         2.7213   -1.5498   -2.5270 H         1 <0>         0.1351
     35 H14         4.3186    1.0490   -2.4647 H         1 <0>         0.0803
     36 H15         4.7039   -0.3970   -1.5010 H         1 <0>         0.0844
     37 H16         6.3263    0.8750   -1.8671 H         1 <0>         0.1349
     38 H17         8.7250    1.3827   -2.0661 H         1 <0>         0.1409
     39 H18        10.0326    0.4885   -3.9404 H         1 <0>         0.1406
     40 H19         7.0343   -2.2435   -8.1710 H         1 <0>         0.1541
     41 H20         6.9396   -0.4995   -7.8145 H         1 <0>         0.1283
     42 H21        10.0919   -1.0894   -5.7422 H         1 <0>         0.4192
     43 H22         2.1814    1.0716   -3.6522 H         1 <0>         0.3897
     44 H23         0.2017   -0.1436   -2.0240 H         1 <0>         0.4325
@<TRIPOS>BOND
     1    1    2 1
     2    1   22 1
     3    1   23 1
     4    1   24 1
     5    2    3 1
     6    2    4 1
     7    2    5 1
     8    3   25 1
     9    3   26 1
    10    3   27 1
    11    4   28 1
    12    4   29 1
    13    4   30 1
    14    5    6 1
    15    5   31 1
    16    5   44 1
    17    6    7 1
    18    6   32 1
    19    6   33 1
    20    7    8 1
    21    7   21 1
    22    7   34 1
    23    8    9 1
    24    8   35 1
    25    8   36 1
    26    9   10 1
    27   10   15 ar
    28   10   11 ar
    29   11   12 ar
    30   11   37 1
    31   12   13 ar
    32   12   38 1
    33   13   14 ar
    34   13   39 1
    35   14   20 1
    36   14   15 ar
    37   15   16 1
    38   16   17 1
    39   17   18 1
    40   17   40 1
    41   17   41 1
    42   18   19 2
    43   18   20 am
    44   20   42 1
    45   21   43 1
@<TRIPOS>MOLECULE
CHEMBL140908__1
   44    45     0     0     0
SMALL
USER_CHARGES

@<TRIPOS>ATOM
      1 C1         -0.0187    1.5258    0.0104 C.3       1 <0>        -0.1796
      2 C2          0.0021   -0.0041    0.0020 C.3       1 <0>         0.0549
      3 C3          0.7421   -0.5109    1.2415 C.3       1 <0>        -0.1792
      4 C4         -1.4333   -0.5336    0.0129 C.3       1 <0>        -0.1779
      5 N1          0.6897   -0.4778   -1.2066 N.4       1 <0>        -0.4977
      6 C5          2.0678    0.0307   -1.2170 C.3       1 <0>        -0.0513
      7 C6          2.7840   -0.4628   -2.4758 C.3       1 <0>         0.0876
      8 C7          4.2193    0.0668   -2.4867 C.3       1 <0>         0.0282
      9 O1          4.8516   -0.2959   -3.7158 O.3       1 <0>        -0.2870
     10 C8          6.1412    0.1010   -3.8875 C.ar      1 <0>         0.1800
     11 C9          6.7865    0.8195   -2.8918 C.ar      1 <0>        -0.2185
     12 C10         8.0977    1.2201   -3.0718 C.ar      1 <0>        -0.0394
     13 C11         8.7720    0.9087   -4.2358 C.ar      1 <0>        -0.1677
     14 C12         8.1387    0.1877   -5.2437 C.ar      1 <0>         0.2036
     15 C13         6.8177   -0.2165   -5.0576 C.ar      1 <0>        -0.1689
     16 S1          6.0094   -1.1283   -6.3344 S.3       1 <0>        -0.0538
     17 C14         6.8314   -0.5165   -7.8367 C.3       1 <0>        -0.1366
     18 C15         8.3123   -0.4436   -7.5822 C.2       1 <0>         0.5231
     19 O2          9.0646   -0.6830   -8.5031 O.2       1 <0>        -0.5016
     20 N2          8.8381   -0.1209   -6.4076 N.am      1 <0>        -0.6551
     21 O3          2.8033   -1.8916   -2.4837 O.3       1 <0>        -0.5413
     22 H1          1.0039    1.9031    0.0027 H         1 <0>         0.0812
     23 H2         -0.5459    1.8868   -0.8726 H         1 <0>         0.0839
     24 H3         -0.5289    1.8773    0.9072 H         1 <0>         0.1073
     25 H4          0.2319   -0.1594    2.1383 H         1 <0>         0.1073
     26 H5          0.7568   -1.6008    1.2356 H         1 <0>         0.0836
     27 H6          1.7647   -0.1336    1.2338 H         1 <0>         0.0806
     28 H7         -1.9605   -0.1726   -0.8702 H         1 <0>         0.0835
     29 H8         -1.4185   -1.6235    0.0069 H         1 <0>         0.0835
     30 H9         -1.9435   -0.1821    0.9097 H         1 <0>         0.1077
     31 H10         0.7033   -1.4867   -1.2121 H         1 <0>         0.4320
     32 H11         2.0530    1.1205   -1.2110 H         1 <0>         0.1483
     33 H12         2.5950   -0.3304   -0.3340 H         1 <0>         0.1415
     34 H13         2.2568   -0.1017   -3.3589 H         1 <0>         0.1366
     35 H14         4.2068    1.1525   -2.3912 H         1 <0>         0.0849
     36 H15         4.7722   -0.3649   -1.6524 H         1 <0>         0.0798
     37 H16         6.2659    1.0658   -1.9781 H         1 <0>         0.1349
     38 H17         8.5980    1.7811   -2.2962 H         1 <0>         0.1409
     39 H18         9.7960    1.2267   -4.3650 H         1 <0>         0.1406
     40 H19         6.6359   -1.1989   -8.6639 H         1 <0>         0.1541
     41 H20         6.4534    0.4760   -8.0817 H         1 <0>         0.1279
     42 H21         9.8065   -0.1112   -6.3524 H         1 <0>         0.4193
     43 H22         3.2576   -2.2830   -1.7250 H         1 <0>         0.3894
     44 H23         0.2017   -0.1436   -2.0240 H         1 <0>         0.4293
@<TRIPOS>BOND
     1    1    2 1
     2    1   22 1
     3    1   23 1
     4    1   24 1
     5    2    3 1
     6    2    4 1
     7    2    5 1
     8    3   25 1
     9    3   26 1
    10    3   27 1
    11    4   28 1
    12    4   29 1
    13    4   30 1
    14    5    6 1
    15    5   31 1
    16    5   44 1
    17    6    7 1
    18    6   32 1
    19    6   33 1
    20    7    8 1
    21    7   21 1
    22    7   34 1
    23    8    9 1
    24    8   35 1
    25    8   36 1
    26    9   10 1
    27   10   15 ar
    28   10   11 ar
    29   11   12 ar
    30   11   37 1
    31   12   13 ar
    32   12   38 1
    33   13   14 ar
    34   13   39 1
    35   14   20 1
    36   14   15 ar
    37   15   16 1
    38   16   17 1
    39   17   18 1
    40   17   40 1
    41   17   41 1
    42   18   19 2
    43   18   20 am
    44   20   42 1
    45   21   43 1
@<TRIPOS>MOLECULE
CHEMBL410702
   62    65     0     0     0
SMALL
USER_CHARGES

@<TRIPOS>ATOM
      1 C1          4.6776  -10.3241    2.8481 C.ar      1 <0>        -0.1486
      2 C2          5.5493  -10.3217    1.7678 C.ar      1 <0>        -0.1087
      3 C3          5.9484   -9.1592    1.1753 C.ar      1 <0>        -0.1275
      4 C4          5.4676   -7.9268    1.6664 C.ar      1 <0>        -0.0085
      5 C5          5.8488   -6.7152    1.0911 C.ar      1 <0>        -0.1774
      6 C6          5.3432   -5.5001    1.6137 C.ar      1 <0>         0.1805
      7 C7          4.4266   -5.5010    2.7497 C.ar      1 <0>        -0.1747
      8 C8          4.0414   -6.6622    3.3256 C.ar      1 <0>        -0.0793
      9 C9          4.5475   -7.9284    2.8058 C.ar      1 <0>        -0.0959
     10 C10         4.1744   -9.1488    3.3718 C.ar      1 <0>        -0.0896
     11 N1          5.7082   -4.3439    1.0631 N.2       1 <0>        -0.5981
     12 C11         4.7815   -3.5018    0.6042 C.2       1 <0>         0.5404
     13 C12         5.1448   -2.2193    0.1999 C.2       1 <0>        -0.3970
     14 N2          4.3208   -1.1511    0.4758 N.pl3     1 <0>         0.1742
     15 O1          3.4944   -1.2363    1.3542 O.2       1 <0>        -0.3587
     16 O2          4.4238   -0.1282   -0.1602 O.3       1 <0>        -0.3574
     17 N3          3.4623   -3.9012    0.5299 N.pl3     1 <0>        -0.6852
     18 C13         2.6545   -3.4479   -0.5120 C.ar      1 <0>         0.2303
     19 C14         3.2232   -2.8044   -1.6058 C.ar      1 <0>        -0.1656
     20 C15         2.4199   -2.3574   -2.6357 C.ar      1 <0>        -0.0645
     21 C16         1.0508   -2.5486   -2.5804 C.ar      1 <0>        -0.1711
     22 C17         0.4814   -3.1883   -1.4941 C.ar      1 <0>        -0.0705
     23 C18         1.2785   -3.6433   -0.4629 C.ar      1 <0>        -0.1775
     24 C19         0.1775   -2.0582   -3.7065 C.3       1 <0>        -0.0854
     25 C20        -0.0561   -3.1954   -4.7031 C.3       1 <0>        -0.0084
     26 N4         -0.8128   -2.6886   -5.8557 N.4       1 <0>        -0.5052
     27 C21        -1.0371   -3.7804   -6.8125 C.3       1 <0>        -0.0424
     28 C22        -1.8252   -3.2526   -8.0130 C.3       1 <0>         0.1405
     29 H1         -1.2602   -2.4558   -8.4968 H         1 <0>         0.1338
     30 C23        -2.0554   -4.3726   -8.9946 C.ar      1 <0>        -0.1965
     31 C24        -1.1899   -4.5598  -10.0618 C.ar      1 <0>        -0.0549
     32 C25        -1.4407   -5.6030  -10.9396 C.ar      1 <0>        -0.1648
     33 C26        -2.5375   -6.4161  -10.7235 C.ar      1 <0>         0.1195
     34 N5         -3.3396   -6.2082   -9.6979 N.ar      1 <0>        -0.4759
     35 C27        -3.1282   -5.2295   -8.8395 C.ar      1 <0>         0.1167
     36 O3         -3.0840   -2.7420   -7.5692 O.3       1 <0>        -0.5462
     37 H2          4.3826  -11.2661    3.2862 H         1 <0>         0.1159
     38 H3          5.9206  -11.2619    1.3876 H         1 <0>         0.1156
     39 H4          6.6281   -9.1821    0.3363 H         1 <0>         0.1215
     40 H5          6.5271   -6.7036    0.2507 H         1 <0>         0.1224
     41 H6          4.0522   -4.5639    3.1346 H         1 <0>         0.1219
     42 H7          3.3630   -6.6527    4.1660 H         1 <0>         0.1259
     43 H8          3.4970   -9.1740    4.2126 H         1 <0>         0.1215
     44 H9          6.0727   -2.0627   -0.3300 H         1 <0>         0.1583
     45 H10         3.0973   -4.4972    1.2025 H         1 <0>         0.4052
     46 H11         4.2918   -2.6541   -1.6493 H         1 <0>         0.1487
     47 H12         2.8607   -1.8576   -3.4855 H         1 <0>         0.1204
     48 H13        -0.5878   -3.3357   -1.4546 H         1 <0>         0.1188
     49 H14         0.8336   -4.1462    0.3830 H         1 <0>         0.1231
     50 H15        -0.7794   -1.7244   -3.3052 H         1 <0>         0.0901
     51 H16         0.6692   -1.2272   -4.2122 H         1 <0>         0.0901
     52 H17         0.9040   -3.5848   -5.0416 H         1 <0>         0.1328
     53 H18        -0.6212   -3.9921   -4.2193 H         1 <0>         0.1313
     54 H19        -1.7016   -2.3281   -5.5423 H         1 <0>         0.4308
     55 H20        -0.0770   -4.1698   -7.1510 H         1 <0>         0.1438
     56 H21        -1.6022   -4.5771   -6.3288 H         1 <0>         0.1363
     57 H22        -0.3407   -3.9082  -10.2058 H         1 <0>         0.1416
     58 H23        -0.7877   -5.7780  -11.7819 H         1 <0>         0.1461
     59 H24        -2.7399   -7.2310  -11.4028 H         1 <0>         0.1656
     60 H25        -3.8042   -5.0934   -8.0082 H         1 <0>         0.1534
     61 H26        -3.6411   -3.3979   -7.1282 H         1 <0>         0.3892
     62 H27        -0.2897   -1.9511   -6.3035 H         1 <0>         0.4288
@<TRIPOS>BOND
     1    1   10 ar
     2    1    2 ar
     3    1   37 1
     4    2    3 ar
     5    2   38 1
     6    3    4 ar
     7    3   39 1
     8    4    9 ar
     9    4    5 ar
    10    5    6 ar
    11    5   40 1
    12    6    7 ar
    13    6   11 1
    14    7    8 ar
    15    7   41 1
    16    8    9 ar
    17    8   42 1
    18    9   10 ar
    19   10   43 1
    20   11   12 2
    21   12   17 1
    22   12   13 1
    23   13   14 1
    24   13   44 1
    25   14   15 2
    26   14   16 1
    27   17   18 1
    28   17   45 1
    29   18   23 ar
    30   18   19 ar
    31   19   20 ar
    32   19   46 1
    33   20   21 ar
    34   20   47 1
    35   21   22 ar
    36   21   24 1
    37   22   23 ar
    38   22   48 1
    39   23   49 1
    40   24   25 1
    41   24   50 1
    42   24   51 1
    43   25   26 1
    44   25   52 1
    45   25   53 1
    46   26   27 1
    47   26   54 1
    48   26   62 1
    49   27   28 1
    50   27   55 1
    51   27   56 1
    52   28   29 1
    53   28   30 1
    54   28   36 1
    55   30   35 ar
    56   30   31 ar
    57   31   32 ar
    58   31   57 1
    59   32   33 ar
    60   32   58 1
    61   33   34 ar
    62   33   59 1
    63   34   35 ar
    64   35   60 1
    65   36   61 1
@<TRIPOS>MOLECULE
CHEMBL410702__1
   63    66     0     0     0
SMALL
USER_CHARGES

@<TRIPOS>ATOM
      1 C1         -1.3421   -1.4682   -1.6702 C.ar      1 <0>        -0.1136
      2 C2         -0.4895   -0.3682   -1.5971 C.ar      1 <0>        -0.1037
      3 C3          0.8457   -0.5300   -1.3894 C.ar      1 <0>        -0.1120
      4 C4          1.3760   -1.8248   -1.2460 C.ar      1 <0>        -0.0358
      5 C5          2.7475   -2.0270   -1.0303 C.ar      1 <0>        -0.1000
      6 C6          3.2322   -3.3167   -0.8935 C.ar      1 <0>         0.0908
      7 C7          2.3616   -4.4185   -0.9698 C.ar      1 <0>        -0.1597
      8 C8          1.0320   -4.2418   -1.1780 C.ar      1 <0>        -0.0738
      9 C9          0.5083   -2.9438   -1.3204 C.ar      1 <0>        -0.0606
     10 C10        -0.8644   -2.7359   -1.5360 C.ar      1 <0>        -0.1008
     11 N1          4.5711   -3.5212   -0.6826 N.2       1 <0>        -0.5160
     12 C11         4.9777   -4.0931    0.4150 C.2       1 <0>         0.4065
     13 C12         3.9751   -4.5438    1.4459 C.3       1 <0>        -0.0200
     14 N2          4.6795   -5.1345    2.5866 N.pl3     1 <0>        -0.0177
     15 O1          5.5809   -4.5301    3.1192 O.2       1 <0>        -0.1651
     16 O2          4.3593   -6.2263    2.9952 O.3       1 <0>        -0.1186
     17 N3          6.3158   -4.2848    0.6319 N.pl3     1 <0>        -0.6450
     18 C13         7.2510   -3.7688   -0.2699 C.ar      1 <0>         0.1791
     19 C14         7.0077   -2.5599   -0.9096 C.ar      1 <0>        -0.1067
     20 C15         7.9337   -2.0530   -1.7999 C.ar      1 <0>        -0.0872
     21 C16         9.1019   -2.7476   -2.0554 C.ar      1 <0>        -0.1268
     22 C17         9.3472   -3.9513   -1.4203 C.ar      1 <0>        -0.0846
     23 C18         8.4282   -4.4609   -0.5241 C.ar      1 <0>        -0.1422
     24 C19        10.1096   -2.1919   -3.0283 C.3       1 <0>        -0.0970
     25 C20        11.1038   -1.3016   -2.2800 C.3       1 <0>        -0.0074
     26 N4         12.0861   -0.7599   -3.2285 N.4       1 <0>        -0.5057
     27 C21        13.0407    0.0949   -2.5100 C.3       1 <0>        -0.0425
     28 C22        14.0638    0.6591   -3.4978 C.3       1 <0>         0.1415
     29 H1         13.5492    1.2478   -4.2573 H         1 <0>         0.1337
     30 C23        15.0430    1.5360   -2.7608 C.ar      1 <0>        -0.2004
     31 C24        14.8436    2.9065   -2.6908 C.ar      1 <0>        -0.0550
     32 C25        15.7704    3.6738   -2.0022 C.ar      1 <0>        -0.1642
     33 C26        16.8547    3.0517   -1.4124 C.ar      1 <0>         0.1225
     34 N5         17.0126    1.7456   -1.4998 N.ar      1 <0>        -0.4748
     35 C27        16.1479    0.9839   -2.1414 C.ar      1 <0>         0.1173
     36 O3         14.7654   -0.4170   -4.1236 O.3       1 <0>        -0.5460
     37 H2         -2.3985   -1.3124   -1.8313 H         1 <0>         0.1282
     38 H3         -0.8942    0.6270   -1.7073 H         1 <0>         0.1278
     39 H4          1.4949    0.3314   -1.3353 H         1 <0>         0.1284
     40 H5          3.4197   -1.1837   -0.9717 H         1 <0>         0.1311
     41 H6          2.7561   -5.4180   -0.8618 H         1 <0>         0.1225
     42 H7          0.3760   -5.0979   -1.2346 H         1 <0>         0.1349
     43 H8         -1.5378   -3.5782   -1.5946 H         1 <0>         0.1311
     44 H9          3.3910   -3.6876    1.7833 H         1 <0>         0.1670
     45 H10         3.3099   -5.2865    1.0054 H         1 <0>         0.1658
     46 H11         6.6149   -4.7786    1.4114 H         1 <0>         0.4245
     47 H12         6.0953   -2.0173   -0.7111 H         1 <0>         0.1415
     48 H13         7.7452   -1.1132   -2.2976 H         1 <0>         0.1269
     49 H14        10.2605   -4.4913   -1.6220 H         1 <0>         0.1291
     50 H15         8.6225   -5.3988   -0.0251 H         1 <0>         0.1314
     51 H16        10.6448   -3.0127   -3.5057 H         1 <0>         0.0958
     52 H17         9.5950   -1.6033   -3.7878 H         1 <0>         0.0955
     53 H18        10.5686   -0.4807   -1.8027 H         1 <0>         0.1336
     54 H19        11.6184   -1.8902   -1.5205 H         1 <0>         0.1337
     55 H20        12.5815   -1.5197   -3.6703 H         1 <0>         0.4325
     56 H21        12.5055    0.9158   -2.0327 H         1 <0>         0.1445
     57 H22        13.5552   -0.4937   -1.7505 H         1 <0>         0.1378
     58 H23        13.9868    3.3653   -3.1619 H         1 <0>         0.1410
     59 H24        15.6469    4.7442   -1.9278 H         1 <0>         0.1472
     60 H25        17.5812    3.6423   -0.8742 H         1 <0>         0.1672
     61 H26        16.3078   -0.0833   -2.1871 H         1 <0>         0.1531
     62 H27        15.2475   -0.9840   -3.5062 H         1 <0>         0.3900
     63 H28        11.6098   -0.2150   -3.9315 H         1 <0>         0.4295
@<TRIPOS>BOND
     1    1   10 ar
     2    1    2 ar
     3    1   37 1
     4    2    3 ar
     5    2   38 1
     6    3    4 ar
     7    3   39 1
     8    4    9 ar
     9    4    5 ar
    10    5    6 ar
    11    5   40 1
    12    6    7 ar
    13    6   11 1
    14    7    8 ar
    15    7   41 1
    16    8    9 ar
    17    8   42 1
    18    9   10 ar
    19   10   43 1
    20   11   12 2
    21   12   17 1
    22   12   13 1
    23   13   14 1
    24   13   45 1
    25   13   44 1
    26   14   15 2
    27   14   16 1
    28   17   18 1
    29   17   46 1
    30   18   23 ar
    31   18   19 ar
    32   19   20 ar
    33   19   47 1
    34   20   21 ar
    35   20   48 1
    36   21   22 ar
    37   21   24 1
    38   22   23 ar
    39   22   49 1
    40   23   50 1
    41   24   25 1
    42   24   51 1
    43   24   52 1
    44   25   26 1
    45   25   53 1
    46   25   54 1
    47   26   27 1
    48   26   55 1
    49   26   63 1
    50   27   28 1
    51   27   56 1
    52   27   57 1
    53   28   29 1
    54   28   30 1
    55   28   36 1
    56   30   35 ar
    57   30   31 ar
    58   31   32 ar
    59   31   58 1
    60   32   33 ar
    61   32   59 1
    62   33   34 ar
    63   33   60 1
    64   34   35 ar
    65   35   61 1
    66   36   62 1
@<TRIPOS>MOLECULE
CHEMBL410702__2
   63    66     0     0     0
SMALL
USER_CHARGES

@<TRIPOS>ATOM
      1 C1          6.7655   -9.9448    3.6340 C.ar      1 <0>        -0.1129
      2 C2          6.9996  -10.0189    2.2622 C.ar      1 <0>        -0.1065
      3 C3          6.9654   -8.9023    1.4849 C.ar      1 <0>        -0.1078
      4 C4          6.6901   -7.6540    2.0716 C.ar      1 <0>        -0.0366
      5 C5          6.6468   -6.4834    1.2993 C.ar      1 <0>        -0.0928
      6 C6          6.3722   -5.2730    1.9126 C.ar      1 <0>         0.0821
      7 C7          6.1383   -5.2114    3.2980 C.ar      1 <0>        -0.1515
      8 C8          6.1762   -6.3335    4.0608 C.ar      1 <0>        -0.0809
      9 C9          6.4520   -7.5789    3.4674 C.ar      1 <0>        -0.0602
     10 C10         6.4959   -8.7540    4.2362 C.ar      1 <0>        -0.1042
     11 N1          6.3284   -4.1256    1.1639 N.2       1 <0>        -0.4759
     12 C11         5.2535   -3.3896    1.1621 C.2       1 <0>         0.3694
     13 C12         5.2521   -2.0596    0.4535 C.3       1 <0>         0.0294
     14 N2          6.6143   -1.5213    0.4227 N.pl3     1 <0>        -0.0201
     15 O1          7.5415   -2.2394    0.1291 O.2       1 <0>        -0.0815
     16 O2          6.8111   -0.3590    0.6909 O.3       1 <0>        -0.1746
     17 N3          4.1252   -3.8244    1.8041 N.pl3     1 <0>        -0.6790
     18 C13         3.0185   -2.9784    1.9225 C.ar      1 <0>         0.1696
     19 C14         2.6582   -2.1516    0.8661 C.ar      1 <0>        -0.1719
     20 C15         1.5644   -1.3171    0.9864 C.ar      1 <0>        -0.0710
     21 C16         0.8285   -1.3037    2.1571 C.ar      1 <0>        -0.1262
     22 C17         1.1844   -2.1255    3.2107 C.ar      1 <0>        -0.0717
     23 C18         2.2734   -2.9670    3.0948 C.ar      1 <0>        -0.1385
     24 C19        -0.3639   -0.3910    2.2851 C.3       1 <0>        -0.0994
     25 C20        -1.6355   -1.1587    1.9186 C.3       1 <0>        -0.0077
     26 N4         -2.7822   -0.2405    1.9294 N.4       1 <0>        -0.5056
     27 C21        -4.0031   -0.9777    1.5775 C.3       1 <0>        -0.0427
     28 C22        -5.1974   -0.0214    1.5888 C.3       1 <0>         0.1417
     29 H1         -5.0319    0.7751    0.8632 H         1 <0>         0.1341
     30 C23        -6.4499   -0.7776    1.2277 C.ar      1 <0>        -0.2011
     31 C24        -6.9014   -0.8030   -0.0832 C.ar      1 <0>        -0.0548
     32 C25        -8.0583   -1.5114   -0.3690 C.ar      1 <0>        -0.1639
     33 C26        -8.7185   -2.1642    0.6550 C.ar      1 <0>         0.1229
     34 N5         -8.2602   -2.1180    1.8905 N.ar      1 <0>        -0.4747
     35 C27        -7.1598   -1.4591    2.1977 C.ar      1 <0>         0.1172
     36 O3         -5.3420    0.5447    2.8929 O.3       1 <0>        -0.5458
     37 H2          6.7939  -10.8465    4.2277 H         1 <0>         0.1271
     38 H3          7.2115  -10.9762    1.8094 H         1 <0>         0.1278
     39 H4          7.1491   -8.9743    0.4231 H         1 <0>         0.1304
     40 H5          6.8265   -6.5262    0.2352 H         1 <0>         0.1358
     41 H6          5.9263   -4.2590    3.7610 H         1 <0>         0.1193
     42 H7          5.9948   -6.2701    5.1236 H         1 <0>         0.1317
     43 H8          6.3163   -8.7129    5.3004 H         1 <0>         0.1290
     44 H9          4.8905   -2.1917   -0.5663 H         1 <0>         0.1627
     45 H10         4.5992   -1.3662    0.9836 H         1 <0>         0.1569
     46 H11         4.0936   -4.7194    2.1767 H         1 <0>         0.4252
     47 H12         3.2330   -2.1611   -0.0482 H         1 <0>         0.1339
     48 H13         1.2837   -0.6740    0.1654 H         1 <0>         0.1346
     49 H14         0.6076   -2.1126    4.1237 H         1 <0>         0.1334
     50 H15         2.5482   -3.6118    3.9164 H         1 <0>         0.1359
     51 H16        -0.4388   -0.0330    3.3120 H         1 <0>         0.0996
     52 H17        -0.2454    0.4582    1.6121 H         1 <0>         0.0978
     53 H18        -1.5252   -1.5905    0.9238 H         1 <0>         0.1337
     54 H19        -1.8010   -1.9552    2.6441 H         1 <0>         0.1336
     55 H20        -2.8843    0.1592    2.8502 H         1 <0>         0.4332
     56 H21        -3.8928   -1.4095    0.5827 H         1 <0>         0.1446
     57 H22        -4.1685   -1.7742    2.3030 H         1 <0>         0.1378
     58 H23        -6.3648   -0.2829   -0.8629 H         1 <0>         0.1411
     59 H24        -8.4390   -1.5524   -1.3788 H         1 <0>         0.1475
     60 H25        -9.6205   -2.7183    0.4407 H         1 <0>         0.1674
     61 H26        -6.8121   -1.4483    3.2202 H         1 <0>         0.1529
     62 H27        -5.4924   -0.1079    3.5904 H         1 <0>         0.3900
     63 H28        -2.6290    0.4967    1.2578 H         1 <0>         0.4301
@<TRIPOS>BOND
     1    1   10 ar
     2    1    2 ar
     3    1   37 1
     4    2    3 ar
     5    2   38 1
     6    3    4 ar
     7    3   39 1
     8    4    9 ar
     9    4    5 ar
    10    5    6 ar
    11    5   40 1
    12    6    7 ar
    13    6   11 1
    14    7    8 ar
    15    7   41 1
    16    8    9 ar
    17    8   42 1
    18    9   10 ar
    19   10   43 1
    20   11   12 2
    21   12   17 1
    22   12   13 1
    23   13   14 1
    24   13   45 1
    25   13   44 1
    26   14   15 2
    27   14   16 1
    28   17   18 1
    29   17   46 1
    30   18   23 ar
    31   18   19 ar
    32   19   20 ar
    33   19   47 1
    34   20   21 ar
    35   20   48 1
    36   21   22 ar
    37   21   24 1
    38   22   23 ar
    39   22   49 1
    40   23   50 1
    41   24   25 1
    42   24   51 1
    43   24   52 1
    44   25   26 1
    45   25   53 1
    46   25   54 1
    47   26   27 1
    48   26   55 1
    49   26   63 1
    50   27   28 1
    51   27   56 1
    52   27   57 1
    53   28   29 1
    54   28   30 1
    55   28   36 1
    56   30   35 ar
    57   30   31 ar
    58   31   32 ar
    59   31   58 1
    60   32   33 ar
    61   32   59 1
    62   33   34 ar
    63   33   60 1
    64   34   35 ar
    65   35   61 1
    66   36   62 1
@<TRIPOS>MOLECULE
CHEMBL410702__3
   62    65     0     0     0
SMALL
USER_CHARGES

@<TRIPOS>ATOM
      1 C1         -0.2669   -2.1723   -3.6472 C.ar      1 <0>        -0.1511
      2 C2          0.2957   -0.9483   -3.3122 C.ar      1 <0>        -0.1122
      3 C3          1.4673   -0.8675   -2.6174 C.ar      1 <0>        -0.1296
      4 C4          2.1278   -2.0515   -2.2266 C.ar      1 <0>        -0.0109
      5 C5          3.3265   -2.0154   -1.5152 C.ar      1 <0>        -0.1845
      6 C6          3.9576   -3.2269   -1.1414 C.ar      1 <0>         0.2106
      7 C7          3.3674   -4.5147   -1.4931 C.ar      1 <0>        -0.1382
      8 C8          2.2057   -4.5770   -2.1825 C.ar      1 <0>        -0.0946
      9 C9          1.5348   -3.3433   -2.5792 C.ar      1 <0>        -0.0902
     10 C10         0.3344   -3.3642   -3.2915 C.ar      1 <0>        -0.0904
     11 N1          5.1024   -3.1907   -0.4620 N.2       1 <0>        -0.6447
     12 C11         5.2053   -3.8271    0.7054 C.2       1 <0>         0.5314
     13 C12         4.0804   -4.4142    1.2801 C.2       1 <0>        -0.4110
     14 N2          4.2241   -5.4746    2.1467 N.pl3     1 <0>         0.1677
     15 O1          5.2912   -6.0341    2.2457 O.2       1 <0>        -0.3789
     16 O2          3.2831   -5.8461    2.8086 O.3       1 <0>        -0.3463
     17 N3          6.4265   -3.9040    1.3442 N.pl3     1 <0>        -0.6498
     18 C13         7.5225   -3.2062    0.8391 C.ar      1 <0>         0.2069
     19 C14         7.3416   -1.9667    0.2350 C.ar      1 <0>        -0.1144
     20 C15         8.4296   -1.2785   -0.2636 C.ar      1 <0>        -0.0883
     21 C16         9.6984   -1.8206   -0.1632 C.ar      1 <0>        -0.1569
     22 C17         9.8825   -3.0533    0.4370 C.ar      1 <0>        -0.0858
     23 C18         8.8003   -3.7451    0.9431 C.ar      1 <0>        -0.1617
     24 C19        10.8832   -1.0664   -0.7097 C.3       1 <0>        -0.0876
     25 C20        11.4601   -0.1628    0.3819 C.3       1 <0>        -0.0084
     26 N4         12.6150    0.5724   -0.1508 N.4       1 <0>        -0.5054
     27 C21        13.1690    1.4400    0.8973 C.3       1 <0>        -0.0425
     28 C22        14.3718    2.2057    0.3425 C.3       1 <0>         0.1408
     29 H1         14.0556    2.8151   -0.5041 H         1 <0>         0.1335
     30 C23        14.9401    3.0957    1.4177 C.ar      1 <0>        -0.1972
     31 C24        14.5519    4.4239    1.5075 C.ar      1 <0>        -0.0550
     32 C25        15.1007    5.2053    2.5125 C.ar      1 <0>        -0.1648
     33 C26        16.0103    4.6385    3.3854 C.ar      1 <0>         0.1200
     34 N5         16.3568    3.3715    3.2698 N.ar      1 <0>        -0.4756
     35 C27        15.8504    2.5971    2.3299 C.ar      1 <0>         0.1170
     36 O3         15.3710    1.2779   -0.0853 O.3       1 <0>        -0.5465
     37 H2         -1.1978   -2.1933   -4.1943 H         1 <0>         0.1140
     38 H3         -0.2055   -0.0387   -3.6087 H         1 <0>         0.1130
     39 H4          1.8864    0.0963   -2.3687 H         1 <0>         0.1184
     40 H5          3.7720   -1.0678   -1.2507 H         1 <0>         0.1175
     41 H6          3.8640   -5.4277   -1.1998 H         1 <0>         0.1161
     42 H7          1.7769   -5.5347   -2.4384 H         1 <0>         0.1213
     43 H8         -0.1211   -4.3053   -3.5623 H         1 <0>         0.1200
     44 H9          3.0956   -4.0377    1.0460 H         1 <0>         0.1571
     45 H10         6.5220   -4.4437    2.1445 H         1 <0>         0.4261
     46 H11         6.3513   -1.5432    0.1556 H         1 <0>         0.1459
     47 H12         8.2900   -0.3159   -0.7329 H         1 <0>         0.1179
     48 H13        10.8746   -3.4731    0.5135 H         1 <0>         0.1185
     49 H14         8.9453   -4.7055    1.4153 H         1 <0>         0.1275
     50 H15        11.6453   -1.7740   -1.0360 H         1 <0>         0.0895
     51 H16        10.5669   -0.4570   -1.5562 H         1 <0>         0.0900
     52 H17        10.6980    0.5449    0.7082 H         1 <0>         0.1330
     53 H18        11.7764   -0.7722    1.2285 H         1 <0>         0.1324
     54 H19        13.3205   -0.0827   -0.4528 H         1 <0>         0.4310
     55 H20        12.4069    2.1476    1.2236 H         1 <0>         0.1440
     56 H21        13.4852    0.8306    1.7439 H         1 <0>         0.1369
     57 H22        13.8391    4.8399    0.8108 H         1 <0>         0.1413
     58 H23        14.8215    6.2438    2.6119 H         1 <0>         0.1462
     59 H24        16.4425    5.2404    4.1711 H         1 <0>         0.1659
     60 H25        16.1542    1.5625    2.2697 H         1 <0>         0.1535
     61 H26        15.6995    0.7015    0.6182 H         1 <0>         0.3896
     62 H27        12.3223    1.1365   -0.9344 H         1 <0>         0.4283
@<TRIPOS>BOND
     1    1   10 ar
     2    1    2 ar
     3    1   37 1
     4    2    3 ar
     5    2   38 1
     6    3    4 ar
     7    3   39 1
     8    4    9 ar
     9    4    5 ar
    10    5    6 ar
    11    5   40 1
    12    6    7 ar
    13    6   11 1
    14    7    8 ar
    15    7   41 1
    16    8    9 ar
    17    8   42 1
    18    9   10 ar
    19   10   43 1
    20   11   12 2
    21   12   17 1
    22   12   13 1
    23   13   14 1
    24   13   44 1
    25   14   15 2
    26   14   16 1
    27   17   18 1
    28   17   45 1
    29   18   23 ar
    30   18   19 ar
    31   19   20 ar
    32   19   46 1
    33   20   21 ar
    34   20   47 1
    35   21   22 ar
    36   21   24 1
    37   22   23 ar
    38   22   48 1
    39   23   49 1
    40   24   25 1
    41   24   50 1
    42   24   51 1
    43   25   26 1
    44   25   52 1
    45   25   53 1
    46   26   27 1
    47   26   54 1
    48   26   62 1
    49   27   28 1
    50   27   55 1
    51   27   56 1
    52   28   29 1
    53   28   30 1
    54   28   36 1
    55   30   35 ar
    56   30   31 ar
    57   31   32 ar
    58   31   57 1
    59   32   33 ar
    60   32   58 1
    61   33   34 ar
    62   33   59 1
    63   34   35 ar
    64   35   60 1
    65   36   61 1
@<TRIPOS>MOLECULE
CHEMBL325371
   59    61     0     0     0
SMALL
USER_CHARGES

@<TRIPOS>ATOM
      1 C1         -0.0187    1.5258    0.0104 C.3       1 <0>        -0.1792
      2 C2          0.0021   -0.0041    0.0020 C.3       1 <0>         0.0549
      3 C3          0.7421   -0.5109    1.2415 C.3       1 <0>        -0.1798
      4 C4         -1.4333   -0.5336    0.0129 C.3       1 <0>        -0.1775
      5 N1          0.6897   -0.4778   -1.2066 N.4       1 <0>        -0.4983
      6 C5          2.0678    0.0307   -1.2170 C.3       1 <0>        -0.0496
      7 C6          2.7840   -0.4628   -2.4758 C.3       1 <0>         0.0889
      8 C7          4.2531   -0.0383   -2.4263 C.3       1 <0>         0.0435
      9 O1          4.9483   -0.5972   -3.5427 O.3       1 <0>        -0.2223
     10 N2          6.3234   -0.2629   -3.5910 N.2       1 <0>        -0.3036
     11 C8          7.0635   -0.7075   -4.5539 C.2       1 <0>         0.1756
     12 C9          8.5226   -0.4762   -4.7780 C.ar      1 <0>        -0.0453
     13 C10         9.5363   -0.1355   -3.8848 C.ar      1 <0>        -0.1055
     14 C11        10.8317    0.0282   -4.3352 C.ar      1 <0>         0.0981
     15 C12        11.1244   -0.1464   -5.6786 C.ar      1 <0>        -0.1207
     16 C13        10.1257   -0.4841   -6.5719 C.ar      1 <0>        -0.0736
     17 C14         8.8257   -0.6536   -6.1412 C.ar      1 <0>        -0.0540
     18 C15         7.5590   -1.0122   -6.8354 C.3       1 <0>        -0.0413
     19 C16         6.6602   -1.5816   -5.7041 C.3       1 <0>         0.1212
     20 C17         5.2310   -1.4951   -6.2027 C.3       1 <0>        -0.1222
     21 C18         5.1293   -2.4616   -7.3987 C.3       1 <0>        -0.1147
     22 C19         6.1261   -2.1087   -8.4977 C.3       1 <0>        -0.1189
     23 C20         7.5675   -2.0142   -7.9626 C.3       1 <0>        -0.1047
     24 O2          7.0136   -2.9392   -5.4322 O.3       1 <0>        -0.3458
     25 C21         6.3678   -3.4888   -4.2820 C.3       1 <0>         0.0271
     26 F1         11.8126    0.3586   -3.4670 F         1 <0>        -0.1308
     27 O3          2.1628    0.1050   -3.6307 O.3       1 <0>        -0.5442
     28 H1          1.0039    1.9031    0.0027 H         1 <0>         0.0809
     29 H2         -0.5459    1.8868   -0.8726 H         1 <0>         0.0835
     30 H3         -0.5289    1.8773    0.9072 H         1 <0>         0.1074
     31 H4          0.2319   -0.1594    2.1383 H         1 <0>         0.1075
     32 H5          0.7568   -1.6008    1.2356 H         1 <0>         0.0835
     33 H6          1.7647   -0.1336    1.2338 H         1 <0>         0.0815
     34 H7         -1.9605   -0.1726   -0.8702 H         1 <0>         0.0833
     35 H8         -1.4185   -1.6235    0.0069 H         1 <0>         0.0831
     36 H9         -1.9435   -0.1821    0.9097 H         1 <0>         0.1078
     37 H10         0.7033   -1.4867   -1.2121 H         1 <0>         0.4280
     38 H11         2.0530    1.1205   -1.2110 H         1 <0>         0.1425
     39 H12         2.5950   -0.3304   -0.3340 H         1 <0>         0.1478
     40 H13         2.7213   -1.5498   -2.5270 H         1 <0>         0.1310
     41 H14         4.3186    1.0490   -2.4647 H         1 <0>         0.0738
     42 H15         4.7039   -0.3970   -1.5010 H         1 <0>         0.0769
     43 H16         9.3086    0.0005   -2.8378 H         1 <0>         0.1392
     44 H17        12.1378   -0.0174   -6.0291 H         1 <0>         0.1481
     45 H18        10.3648   -0.6171   -7.6166 H         1 <0>         0.1434
     46 H19         7.0930   -0.0946   -7.1946 H         1 <0>         0.0979
     47 H20         4.5412   -1.7998   -5.4157 H         1 <0>         0.0779
     48 H21         5.0079   -0.4777   -6.5240 H         1 <0>         0.0761
     49 H22         5.3262   -3.4765   -7.0531 H         1 <0>         0.0703
     50 H23         4.1196   -2.4165   -7.8070 H         1 <0>         0.0653
     51 H24         6.0824   -2.8716   -9.2749 H         1 <0>         0.0714
     52 H25         5.8512   -1.1469   -8.9306 H         1 <0>         0.0604
     53 H26         8.2438   -1.6825   -8.7504 H         1 <0>         0.0752
     54 H27         7.8784   -2.9904   -7.5904 H         1 <0>         0.0833
     55 H28         6.6347   -2.9044   -3.4015 H         1 <0>         0.0358
     56 H29         5.2874   -3.4598   -4.4234 H         1 <0>         0.0446
     57 H30         6.6886   -4.5213   -4.1438 H         1 <0>         0.0931
     58 H31         2.1814    1.0716   -3.6522 H         1 <0>         0.3905
     59 H32         0.2017   -0.1436   -2.0240 H         1 <0>         0.4318
@<TRIPOS>BOND
     1    1    2 1
     2    1   28 1
     3    1   29 1
     4    1   30 1
     5    2    3 1
     6    2    4 1
     7    2    5 1
     8    3   31 1
     9    3   32 1
    10    3   33 1
    11    4   34 1
    12    4   35 1
    13    4   36 1
    14    5    6 1
    15    5   37 1
    16    5   59 1
    17    6    7 1
    18    6   38 1
    19    6   39 1
    20    7    8 1
    21    7   27 1
    22    7   40 1
    23    8    9 1
    24    8   41 1
    25    8   42 1
    26    9   10 1
    27   10   11 2
    28   11   19 1
    29   11   12 1
    30   12   17 ar
    31   12   13 ar
    32   13   14 ar
    33   13   43 1
    34   14   15 ar
    35   14   26 1
    36   15   16 ar
    37   15   44 1
    38   16   17 ar
    39   16   45 1
    40   17   18 1
    41   18   23 1
    42   18   19 1
    43   18   46 1
    44   19   20 1
    45   19   24 1
    46   20   21 1
    47   20   47 1
    48   20   48 1
    49   21   22 1
    50   21   49 1
    51   21   50 1
    52   22   23 1
    53   22   51 1
    54   22   52 1
    55   23   53 1
    56   23   54 1
    57   24   25 1
    58   25   55 1
    59   25   56 1
    60   25   57 1
    61   27   58 1
@<TRIPOS>MOLECULE
CHEMBL325371__1
   59    61     0     0     0
SMALL
USER_CHARGES

@<TRIPOS>ATOM
      1 C1         -0.0134    1.6276   -0.0325 C.3       1 <0>        -0.1792
      2 C2         -0.0357    0.0983   -0.0743 C.3       1 <0>         0.0549
      3 C3          0.6730   -0.4561    1.1631 C.3       1 <0>        -0.1798
      4 C4         -1.4855   -0.3902   -0.0935 C.3       1 <0>        -0.1775
      5 N1          0.6544   -0.3686   -1.2842 N.4       1 <0>        -0.4983
      6 C5          2.0464    0.1005   -1.2658 C.3       1 <0>        -0.0496
      7 C6          2.7651   -0.3858   -2.5259 C.3       1 <0>         0.0882
      8 C7          4.2448   -0.0046   -2.4482 C.3       1 <0>         0.0386
      9 O1          4.9388   -0.5588   -3.5677 O.3       1 <0>        -0.2202
     10 N2          6.3234   -0.2629   -3.5910 N.2       1 <0>        -0.3067
     11 C8          7.0635   -0.7075   -4.5539 C.2       1 <0>         0.1758
     12 C9          8.4886   -0.3860   -4.8190 C.ar      1 <0>        -0.0456
     13 C10         9.2801    0.6782   -4.3788 C.ar      1 <0>        -0.1042
     14 C11        10.6095    0.7455   -4.7468 C.ar      1 <0>         0.0973
     15 C12        11.1600   -0.2398   -5.5512 C.ar      1 <0>        -0.1201
     16 C13        10.3779   -1.2887   -5.9999 C.ar      1 <0>        -0.0757
     17 C14         9.0461   -1.3596   -5.6485 C.ar      1 <0>        -0.0629
     18 C15         7.9650   -2.3538   -6.0459 C.3       1 <0>        -0.0324
     19 C16         6.6666   -1.6707   -5.6473 C.3       1 <0>         0.1468
     20 C17         5.4991   -2.5324   -5.3034 C.3       1 <0>        -0.1523
     21 C18         5.8254   -3.8424   -4.6150 C.3       1 <0>        -0.1106
     22 C19         6.9896   -4.5399   -5.3162 C.3       1 <0>        -0.1245
     23 C20         8.2051   -3.6316   -5.2414 C.3       1 <0>        -0.1098
     24 O2          6.2661   -0.8739   -6.7639 O.3       1 <0>        -0.3686
     25 C21         5.1437   -0.0290   -6.5023 C.3       1 <0>         0.0254
     26 F1         11.3753    1.7740   -4.3214 F         1 <0>        -0.1311
     27 O3          2.1757    0.2243   -3.6758 O.3       1 <0>        -0.5448
     28 H1          1.0195    1.9757   -0.0189 H         1 <0>         0.0809
     29 H2         -0.5183    2.0226   -0.9141 H         1 <0>         0.0835
     30 H3         -0.5254    1.9741    0.8652 H         1 <0>         0.1074
     31 H4          0.1609   -0.1096    2.0608 H         1 <0>         0.1075
     32 H5          0.6571   -1.5456    1.1334 H         1 <0>         0.0835
     33 H6          1.7058   -0.1080    1.1768 H         1 <0>         0.0814
     34 H7         -1.9904    0.0048   -0.9750 H         1 <0>         0.0833
     35 H8         -1.5014   -1.4797   -0.1232 H         1 <0>         0.0831
     36 H9         -1.9975   -0.0438    0.8043 H         1 <0>         0.1078
     37 H10         0.6396   -1.3771   -1.3117 H         1 <0>         0.4280
     38 H11         2.0623    1.1900   -1.2360 H         1 <0>         0.1424
     39 H12         2.5512   -0.2945   -0.3842 H         1 <0>         0.1478
     40 H13         2.6725   -1.4692   -2.6017 H         1 <0>         0.1314
     41 H14         4.3415    1.0810   -2.4619 H         1 <0>         0.0738
     42 H15         4.6729   -0.3959   -1.5253 H         1 <0>         0.0778
     43 H16         8.8528    1.4471   -3.7521 H         1 <0>         0.1401
     44 H17        12.2025   -0.1883   -5.8286 H         1 <0>         0.1485
     45 H18        10.8112   -2.0539   -6.6269 H         1 <0>         0.1450
     46 H19         7.9971   -2.5577   -7.1162 H         1 <0>         0.1159
     47 H20         4.8347   -1.9626   -4.6538 H         1 <0>         0.0959
     48 H21         4.9584   -2.7563   -6.2230 H         1 <0>         0.0812
     49 H22         6.0959   -3.6459   -3.5776 H         1 <0>         0.0570
     50 H23         4.9493   -4.4904   -4.6412 H         1 <0>         0.0695
     51 H24         7.2026   -5.4870   -4.8204 H         1 <0>         0.0743
     52 H25         6.7345   -4.7205   -6.3604 H         1 <0>         0.0717
     53 H26         9.0711   -4.1564   -5.6449 H         1 <0>         0.0815
     54 H27         8.3928   -3.3735   -4.1992 H         1 <0>         0.0658
     55 H28         4.2867   -0.6404   -6.2196 H         1 <0>         0.0508
     56 H29         5.3858    0.6554   -5.6892 H         1 <0>         0.0383
     57 H30         4.9024    0.5425   -7.3985 H         1 <0>         0.0892
     58 H31         2.2219    1.1902   -3.6758 H         1 <0>         0.3905
     59 H32         0.1870   -0.0029   -2.1002 H         1 <0>         0.4318
@<TRIPOS>BOND
     1    1    2 1
     2    1   28 1
     3    1   29 1
     4    1   30 1
     5    2    3 1
     6    2    4 1
     7    2    5 1
     8    3   31 1
     9    3   32 1
    10    3   33 1
    11    4   34 1
    12    4   35 1
    13    4   36 1
    14    5    6 1
    15    5   37 1
    16    5   59 1
    17    6    7 1
    18    6   38 1
    19    6   39 1
    20    7    8 1
    21    7   27 1
    22    7   40 1
    23    8    9 1
    24    8   41 1
    25    8   42 1
    26    9   10 1
    27   10   11 2
    28   11   19 1
    29   11   12 1
    30   12   17 ar
    31   12   13 ar
    32   13   14 ar
    33   13   43 1
    34   14   15 ar
    35   14   26 1
    36   15   16 ar
    37   15   44 1
    38   16   17 ar
    39   16   45 1
    40   17   18 1
    41   18   23 1
    42   18   19 1
    43   18   46 1
    44   19   20 1
    45   19   24 1
    46   20   21 1
    47   20   47 1
    48   20   48 1
    49   21   22 1
    50   21   49 1
    51   21   50 1
    52   22   23 1
    53   22   51 1
    54   22   52 1
    55   23   53 1
    56   23   54 1
    57   24   25 1
    58   25   55 1
    59   25   56 1
    60   25   57 1
    61   27   58 1
@<TRIPOS>MOLECULE
CHEMBL325371__2
   59    61     0     0     0
SMALL
USER_CHARGES

@<TRIPOS>ATOM
      1 C1         -0.2389    1.7609   -0.3045 C.3       1 <0>        -0.1791
      2 C2         -0.3600    0.2473   -0.4922 C.3       1 <0>         0.0548
      3 C3          0.2073   -0.4660    0.7368 C.3       1 <0>        -0.1796
      4 C4         -1.8328   -0.1289   -0.6656 C.3       1 <0>        -0.1775
      5 N1          0.3933   -0.1600   -1.6858 N.4       1 <0>        -0.4982
      6 C5          1.8074    0.2012   -1.5193 C.3       1 <0>        -0.0496
      7 C6          2.5919   -0.2229   -2.7625 C.3       1 <0>         0.0905
      8 C7          4.0826    0.0393   -2.5389 C.3       1 <0>         0.0424
      9 O1          4.8266   -0.4630   -3.6507 O.3       1 <0>        -0.2064
     10 N2          6.2252   -0.2696   -3.5425 N.2       1 <0>        -0.3100
     11 C8          7.0165   -0.7526   -4.4442 C.2       1 <0>         0.1587
     12 C9          8.4822   -0.5549   -4.5469 C.ar      1 <0>        -0.0510
     13 C10         9.3129    0.4183   -3.9849 C.ar      1 <0>        -0.1032
     14 C11        10.6755    0.3727   -4.2038 C.ar      1 <0>         0.0986
     15 C12        11.2212   -0.6368   -4.9810 C.ar      1 <0>        -0.1193
     16 C13        10.4033   -1.5938   -5.5526 C.ar      1 <0>        -0.0758
     17 C14         9.0380   -1.5511   -5.3542 C.ar      1 <0>        -0.0630
     18 C15         7.9202   -2.3989   -5.9049 C.3       1 <0>        -0.0738
     19 C16         6.6355   -1.6495   -5.6193 C.3       1 <0>         0.1529
     20 C17         6.1549   -0.7617   -6.7520 C.3       1 <0>        -0.0949
     21 C18         6.2876   -1.4339   -8.1118 C.3       1 <0>        -0.1164
     22 C19         7.7612   -1.7874   -8.3398 C.3       1 <0>        -0.1232
     23 C20         8.1619   -2.8377   -7.3207 C.3       1 <0>        -0.1044
     24 O2          5.6118   -2.5652   -5.2248 O.3       1 <0>        -0.3513
     25 C21         5.9397   -3.3419   -4.0711 C.3       1 <0>         0.0201
     26 F1         11.4779    1.3138   -3.6600 F         1 <0>        -0.1302
     27 O3          2.1400    0.5290   -3.8905 O.3       1 <0>        -0.5428
     28 H1          0.8104    2.0289   -0.1810 H         1 <0>         0.0809
     29 H2         -0.6430    2.2690   -1.1801 H         1 <0>         0.0836
     30 H3         -0.7978    2.0630    0.5811 H         1 <0>         0.1071
     31 H4         -0.3516   -0.1638    1.6225 H         1 <0>         0.1072
     32 H5          0.1210   -1.5443    0.6031 H         1 <0>         0.0834
     33 H6          1.2566   -0.1980    0.8603 H         1 <0>         0.0813
     34 H7         -2.2369    0.3792   -1.5412 H         1 <0>         0.0833
     35 H8         -1.9191   -1.2073   -0.7993 H         1 <0>         0.0831
     36 H9         -2.3917    0.1732    0.2200 H         1 <0>         0.1075
     37 H10         0.3134   -1.1582   -1.8096 H         1 <0>         0.4282
     38 H11         1.8937    1.2795   -1.3856 H         1 <0>         0.1418
     39 H12         2.2115   -0.3069   -0.6437 H         1 <0>         0.1469
     40 H13         2.4336   -1.2854   -2.9471 H         1 <0>         0.1318
     41 H14         4.2525    1.1116   -2.4427 H         1 <0>         0.0718
     42 H15         4.4072   -0.4632   -1.6277 H         1 <0>         0.0738
     43 H16         8.8892    1.2061   -3.3797 H         1 <0>         0.1411
     44 H17        12.2887   -0.6763   -5.1403 H         1 <0>         0.1489
     45 H18        10.8345   -2.3779   -6.1572 H         1 <0>         0.1442
     46 H19         7.8836   -3.3008   -5.2938 H         1 <0>         0.0940
     47 H20         5.1079   -0.5098   -6.5834 H         1 <0>         0.0798
     48 H21         6.7414    0.1571   -6.7536 H         1 <0>         0.0773
     49 H22         5.6860   -2.3426   -8.1312 H         1 <0>         0.0720
     50 H23         5.9500   -0.7515   -8.8919 H         1 <0>         0.0730
     51 H24         7.8926   -2.1832   -9.3468 H         1 <0>         0.0740
     52 H25         8.3768   -0.8971   -8.2112 H         1 <0>         0.0659
     53 H26         9.2210   -3.0650   -7.4426 H         1 <0>         0.0750
     54 H27         7.5857   -3.7430   -7.5117 H         1 <0>         0.0724
     55 H28         6.7549   -4.0241   -4.3121 H         1 <0>         0.0510
     56 H29         6.2476   -2.6791   -3.2624 H         1 <0>         0.0396
     57 H30         5.0667   -3.9149   -3.7587 H         1 <0>         0.0906
     58 H31         2.2505    1.4850   -3.7957 H         1 <0>         0.3892
     59 H32         0.0192    0.3104   -2.4963 H         1 <0>         0.4319
@<TRIPOS>BOND
     1    1    2 1
     2    1   28 1
     3    1   29 1
     4    1   30 1
     5    2    3 1
     6    2    4 1
     7    2    5 1
     8    3   31 1
     9    3   32 1
    10    3   33 1
    11    4   34 1
    12    4   35 1
    13    4   36 1
    14    5    6 1
    15    5   37 1
    16    5   59 1
    17    6    7 1
    18    6   38 1
    19    6   39 1
    20    7    8 1
    21    7   27 1
    22    7   40 1
    23    8    9 1
    24    8   41 1
    25    8   42 1
    26    9   10 1
    27   10   11 2
    28   11   19 1
    29   11   12 1
    30   12   17 ar
    31   12   13 ar
    32   13   14 ar
    33   13   43 1
    34   14   15 ar
    35   14   26 1
    36   15   16 ar
    37   15   44 1
    38   16   17 ar
    39   16   45 1
    40   17   18 1
    41   18   23 1
    42   18   19 1
    43   18   46 1
    44   19   20 1
    45   19   24 1
    46   20   21 1
    47   20   47 1
    48   20   48 1
    49   21   22 1
    50   21   49 1
    51   21   50 1
    52   22   23 1
    53   22   51 1
    54   22   52 1
    55   23   53 1
    56   23   54 1
    57   24   25 1
    58   25   55 1
    59   25   56 1
    60   25   57 1
    61   27   58 1
@<TRIPOS>MOLECULE
CHEMBL325371__3
   59    61     0     0     0
SMALL
USER_CHARGES

@<TRIPOS>ATOM
      1 C1         -0.0187    1.5258    0.0104 C.3       1 <0>        -0.1792
      2 C2          0.0021   -0.0041    0.0020 C.3       1 <0>         0.0549
      3 C3          0.7421   -0.5109    1.2415 C.3       1 <0>        -0.1798
      4 C4         -1.4333   -0.5336    0.0129 C.3       1 <0>        -0.1775
      5 N1          0.6897   -0.4778   -1.2066 N.4       1 <0>        -0.4982
      6 C5          2.0678    0.0307   -1.2170 C.3       1 <0>        -0.0495
      7 C6          2.7840   -0.4628   -2.4758 C.3       1 <0>         0.0887
      8 C7          4.2531   -0.0383   -2.4263 C.3       1 <0>         0.0436
      9 O1          4.9483   -0.5972   -3.5427 O.3       1 <0>        -0.2222
     10 N2          6.3234   -0.2629   -3.5910 N.2       1 <0>        -0.3036
     11 C8          7.0635   -0.7075   -4.5539 C.2       1 <0>         0.1758
     12 C9          8.5226   -0.4763   -4.7780 C.ar      1 <0>        -0.0454
     13 C10         9.3585    0.5477   -4.3371 C.ar      1 <0>        -0.1054
     14 C11        10.6970    0.5456   -4.6778 C.ar      1 <0>         0.0981
     15 C12        11.2105   -0.4772   -5.4596 C.ar      1 <0>        -0.1207
     16 C13        10.3890   -1.4964   -5.9020 C.ar      1 <0>        -0.0736
     17 C14         9.0490   -1.5119   -5.5729 C.ar      1 <0>        -0.0541
     18 C15         7.9312   -2.4424   -5.8885 C.3       1 <0>        -0.0424
     19 C16         6.6602   -1.5816   -5.7041 C.3       1 <0>         0.1223
     20 C17         5.5117   -2.5500   -5.4995 C.3       1 <0>        -0.1249
     21 C18         5.3600   -3.3288   -6.8206 C.3       1 <0>        -0.1151
     22 C19         6.6449   -4.0586   -7.1978 C.3       1 <0>        -0.1192
     23 C20         7.8505   -3.1019   -7.2424 C.3       1 <0>        -0.1037
     24 O2          6.4401   -0.7838   -6.8690 O.3       1 <0>        -0.3463
     25 C21         5.3923    0.1773   -6.7259 C.3       1 <0>         0.0271
     26 F1         11.5051    1.5400   -4.2496 F         1 <0>        -0.1308
     27 O3          2.1628    0.1050   -3.6307 O.3       1 <0>        -0.5448
     28 H1          1.0039    1.9031    0.0027 H         1 <0>         0.0809
     29 H2         -0.5459    1.8868   -0.8726 H         1 <0>         0.0834
     30 H3         -0.5289    1.8773    0.9072 H         1 <0>         0.1074
     31 H4          0.2319   -0.1594    2.1383 H         1 <0>         0.1075
     32 H5          0.7568   -1.6008    1.2356 H         1 <0>         0.0836
     33 H6          1.7647   -0.1336    1.2338 H         1 <0>         0.0815
     34 H7         -1.9605   -0.1726   -0.8702 H         1 <0>         0.0832
     35 H8         -1.4185   -1.6235    0.0069 H         1 <0>         0.0832
     36 H9         -1.9435   -0.1821    0.9097 H         1 <0>         0.1078
     37 H10         0.7033   -1.4867   -1.2121 H         1 <0>         0.4281
     38 H11         2.0530    1.1205   -1.2110 H         1 <0>         0.1422
     39 H12         2.5950   -0.3304   -0.3340 H         1 <0>         0.1480
     40 H13         2.7213   -1.5498   -2.5270 H         1 <0>         0.1320
     41 H14         4.3186    1.0490   -2.4647 H         1 <0>         0.0727
     42 H15         4.7039   -0.3970   -1.5010 H         1 <0>         0.0779
     43 H16         8.9588    1.3449   -3.7280 H         1 <0>         0.1393
     44 H17        12.2575   -0.4774   -5.7245 H         1 <0>         0.1481
     45 H18        10.7994   -2.2880   -6.5114 H         1 <0>         0.1433
     46 H19         7.9063   -3.2201   -5.1252 H         1 <0>         0.0970
     47 H20         5.7420   -3.2366   -4.6848 H         1 <0>         0.0746
     48 H21         4.5950   -2.0023   -5.2808 H         1 <0>         0.0792
     49 H22         4.5562   -4.0571   -6.7134 H         1 <0>         0.0645
     50 H23         5.1012   -2.6308   -7.6168 H         1 <0>         0.0714
     51 H24         6.8350   -4.8439   -6.4661 H         1 <0>         0.0614
     52 H25         6.5194   -4.5138   -8.1802 H         1 <0>         0.0710
     53 H26         7.7110   -2.3471   -8.0163 H         1 <0>         0.0855
     54 H27         8.7609   -3.6696   -7.4346 H         1 <0>         0.0739
     55 H28         4.4561   -0.3359   -6.5059 H         1 <0>         0.0478
     56 H29         5.6333    0.8589   -5.9102 H         1 <0>         0.0353
     57 H30         5.2881    0.7419   -7.6524 H         1 <0>         0.0921
     58 H31         2.1814    1.0716   -3.6522 H         1 <0>         0.3901
     59 H32         0.2017   -0.1436   -2.0240 H         1 <0>         0.4317
@<TRIPOS>BOND
     1    1    2 1
     2    1   28 1
     3    1   29 1
     4    1   30 1
     5    2    3 1
     6    2    4 1
     7    2    5 1
     8    3   31 1
     9    3   32 1
    10    3   33 1
    11    4   34 1
    12    4   35 1
    13    4   36 1
    14    5    6 1
    15    5   37 1
    16    5   59 1
    17    6    7 1
    18    6   38 1
    19    6   39 1
    20    7    8 1
    21    7   27 1
    22    7   40 1
    23    8    9 1
    24    8   41 1
    25    8   42 1
    26    9   10 1
    27   10   11 2
    28   11   19 1
    29   11   12 1
    30   12   17 ar
    31   12   13 ar
    32   13   14 ar
    33   13   43 1
    34   14   15 ar
    35   14   26 1
    36   15   16 ar
    37   15   44 1
    38   16   17 ar
    39   16   45 1
    40   17   18 1
    41   18   23 1
    42   18   19 1
    43   18   46 1
    44   19   20 1
    45   19   24 1
    46   20   21 1
    47   20   47 1
    48   20   48 1
    49   21   22 1
    50   21   49 1
    51   21   50 1
    52   22   23 1
    53   22   51 1
    54   22   52 1
    55   23   53 1
    56   23   54 1
    57   24   25 1
    58   25   55 1
    59   25   56 1
    60   25   57 1
    61   27   58 1
@<TRIPOS>MOLECULE
CHEMBL325371__4
   59    61     0     0     0
SMALL
USER_CHARGES

@<TRIPOS>ATOM
      1 C1         -0.0187    1.5258    0.0104 C.3       1 <0>        -0.1798
      2 C2          0.0021   -0.0041    0.0020 C.3       1 <0>         0.0549
      3 C3          0.7421   -0.5109    1.2415 C.3       1 <0>        -0.1794
      4 C4         -1.4333   -0.5336    0.0129 C.3       1 <0>        -0.1775
      5 N1          0.6897   -0.4778   -1.2066 N.4       1 <0>        -0.4977
      6 C5          2.0678    0.0307   -1.2170 C.3       1 <0>        -0.0497
      7 C6          2.7840   -0.4628   -2.4758 C.3       1 <0>         0.0886
      8 C7          4.2193    0.0668   -2.4867 C.3       1 <0>         0.0436
      9 O1          4.8516   -0.2959   -3.7158 O.3       1 <0>        -0.2223
     10 N2          6.1913    0.1489   -3.8275 N.2       1 <0>        -0.3036
     11 C8          6.8737   -0.1159   -4.8937 C.2       1 <0>         0.1756
     12 C9          8.2886    0.2550   -5.1991 C.ar      1 <0>        -0.0451
     13 C10         9.3503    0.5634   -4.3510 C.ar      1 <0>        -0.1055
     14 C11        10.5875    0.8820   -4.8760 C.ar      1 <0>         0.0981
     15 C12        10.7737    0.8954   -6.2494 C.ar      1 <0>        -0.1207
     16 C13         9.7267    0.5911   -7.0982 C.ar      1 <0>        -0.0735
     17 C14         8.4836    0.2688   -6.5931 C.ar      1 <0>        -0.0541
     18 C15         7.1890   -0.1014   -7.2270 C.3       1 <0>        -0.0415
     19 C16         6.4328   -0.8728   -6.1112 C.3       1 <0>         0.1221
     20 C17         4.9632   -0.8392   -6.4824 C.3       1 <0>        -0.1248
     21 C18         4.8244   -1.6584   -7.7803 C.3       1 <0>        -0.1145
     22 C19         5.6956   -1.0973   -8.8993 C.3       1 <0>        -0.1188
     23 C20         7.1681   -0.9554   -8.4700 C.3       1 <0>        -0.1047
     24 O2          6.9005   -2.2214   -6.0429 O.3       1 <0>        -0.3463
     25 C21         6.3960   -2.9557   -4.9255 C.3       1 <0>         0.0274
     26 F1         11.6151    1.1808   -4.0515 F         1 <0>        -0.1307
     27 O3          2.8033   -1.8916   -2.4837 O.3       1 <0>        -0.5454
     28 H1          1.0039    1.9031    0.0027 H         1 <0>         0.0815
     29 H2         -0.5459    1.8868   -0.8726 H         1 <0>         0.0836
     30 H3         -0.5289    1.8773    0.9072 H         1 <0>         0.1075
     31 H4          0.2319   -0.1594    2.1383 H         1 <0>         0.1074
     32 H5          0.7568   -1.6008    1.2356 H         1 <0>         0.0833
     33 H6          1.7647   -0.1336    1.2338 H         1 <0>         0.0810
     34 H7         -1.9605   -0.1726   -0.8702 H         1 <0>         0.0832
     35 H8         -1.4185   -1.6235    0.0069 H         1 <0>         0.0832
     36 H9         -1.9435   -0.1821    0.9097 H         1 <0>         0.1078
     37 H10         0.7033   -1.4867   -1.2121 H         1 <0>         0.4313
     38 H11         2.0530    1.1205   -1.2110 H         1 <0>         0.1484
     39 H12         2.5950   -0.3304   -0.3340 H         1 <0>         0.1417
     40 H13         2.2568   -0.1017   -3.3589 H         1 <0>         0.1330
     41 H14         4.2068    1.1525   -2.3912 H         1 <0>         0.0782
     42 H15         4.7722   -0.3649   -1.6524 H         1 <0>         0.0725
     43 H16         9.2056    0.5530   -3.2808 H         1 <0>         0.1392
     44 H17        11.7417    1.1453   -6.6580 H         1 <0>         0.1481
     45 H18         9.8828    0.6052   -8.1667 H         1 <0>         0.1433
     46 H19         6.6320    0.8135   -7.4290 H         1 <0>         0.0975
     47 H20         4.3667   -1.2906   -5.6896 H         1 <0>         0.0792
     48 H21         4.6440    0.1889   -6.6531 H         1 <0>         0.0747
     49 H22         5.1195   -2.6890   -7.5832 H         1 <0>         0.0713
     50 H23         3.7824   -1.6437   -8.1000 H         1 <0>         0.0648
     51 H24         5.6369   -1.7613   -9.7617 H         1 <0>         0.0715
     52 H25         5.3191   -0.1147   -9.1835 H         1 <0>         0.0601
     53 H26         7.7493   -0.4782   -9.2591 H         1 <0>         0.0752
     54 H27         7.5762   -1.9420   -8.2505 H         1 <0>         0.0836
     55 H28         6.6978   -2.4633   -4.0011 H         1 <0>         0.0353
     56 H29         5.3080   -2.9949   -4.9779 H         1 <0>         0.0478
     57 H30         6.7975   -3.9688   -4.9454 H         1 <0>         0.0922
     58 H31         3.2576   -2.2830   -1.7250 H         1 <0>         0.3897
     59 H32         0.2017   -0.1436   -2.0240 H         1 <0>         0.4284
@<TRIPOS>BOND
     1    1    2 1
     2    1   28 1
     3    1   29 1
     4    1   30 1
     5    2    3 1
     6    2    4 1
     7    2    5 1
     8    3   31 1
     9    3   32 1
    10    3   33 1
    11    4   34 1
    12    4   35 1
    13    4   36 1
    14    5    6 1
    15    5   37 1
    16    5   59 1
    17    6    7 1
    18    6   38 1
    19    6   39 1
    20    7    8 1
    21    7   27 1
    22    7   40 1
    23    8    9 1
    24    8   41 1
    25    8   42 1
    26    9   10 1
    27   10   11 2
    28   11   19 1
    29   11   12 1
    30   12   17 ar
    31   12   13 ar
    32   13   14 ar
    33   13   43 1
    34   14   15 ar
    35   14   26 1
    36   15   16 ar
    37   15   44 1
    38   16   17 ar
    39   16   45 1
    40   17   18 1
    41   18   23 1
    42   18   19 1
    43   18   46 1
    44   19   20 1
    45   19   24 1
    46   20   21 1
    47   20   47 1
    48   20   48 1
    49   21   22 1
    50   21   49 1
    51   21   50 1
    52   22   23 1
    53   22   51 1
    54   22   52 1
    55   23   53 1
    56   23   54 1
    57   24   25 1
    58   25   55 1
    59   25   56 1
    60   25   57 1
    61   27   58 1
@<TRIPOS>MOLECULE
CHEMBL325371__5
   59    61     0     0     0
SMALL
USER_CHARGES

@<TRIPOS>ATOM
      1 C1         -0.0034    1.6437   -0.0091 C.3       1 <0>        -0.1798
      2 C2         -0.0306    0.1144   -0.0483 C.3       1 <0>         0.0550
      3 C3          0.6831   -0.4402    1.1862 C.3       1 <0>        -0.1793
      4 C4         -1.4819   -0.3698   -0.0589 C.3       1 <0>        -0.1775
      5 N1          0.6516   -0.3565   -1.2611 N.4       1 <0>        -0.4977
      6 C5          2.0451    0.1084   -1.2509 C.3       1 <0>        -0.0498
      7 C6          2.7556   -0.3821   -2.5140 C.3       1 <0>         0.0879
      8 C7          4.2069    0.1022   -2.5034 C.3       1 <0>         0.0387
      9 O1          4.8375   -0.2557   -3.7348 O.3       1 <0>        -0.2205
     10 N2          6.1913    0.1489   -3.8275 N.2       1 <0>        -0.3064
     11 C8          6.8737   -0.1159   -4.8937 C.2       1 <0>         0.1757
     12 C9          8.2451    0.3465   -5.2254 C.ar      1 <0>        -0.0459
     13 C10         8.9972    1.4084   -4.7159 C.ar      1 <0>        -0.1042
     14 C11        10.2818    1.6243   -5.1743 C.ar      1 <0>         0.0973
     15 C12        10.8266    0.7903   -6.1380 C.ar      1 <0>        -0.1200
     16 C13        10.0821   -0.2546   -6.6548 C.ar      1 <0>        -0.0757
     17 C14         8.7937   -0.4722   -6.2131 C.ar      1 <0>        -0.0628
     18 C15         7.7528   -1.4928   -6.6489 C.3       1 <0>        -0.0324
     19 C16         6.4502   -0.9674   -6.0669 C.3       1 <0>         0.1464
     20 C17         5.3786   -1.9537   -5.7462 C.3       1 <0>        -0.1520
     21 C18         5.8522   -3.3078   -5.2579 C.3       1 <0>        -0.1079
     22 C19         6.9962   -3.8213   -6.1304 C.3       1 <0>        -0.1250
     23 C20         8.1486   -2.8360   -6.0349 C.3       1 <0>        -0.1096
     24 O2          5.9007   -0.0750   -7.0384 O.3       1 <0>        -0.3678
     25 C21         4.7502    0.6409   -6.5849 C.3       1 <0>         0.0244
     26 F1         11.0095    2.6505   -4.6820 F         1 <0>        -0.1311
     27 O3          2.7303   -1.8104   -2.5506 O.3       1 <0>        -0.5449
     28 H1          1.0305    1.9886   -0.0015 H         1 <0>         0.0815
     29 H2         -0.5119    2.0387   -0.8886 H         1 <0>         0.0836
     30 H3         -0.5096    1.9931    0.8908 H         1 <0>         0.1075
     31 H4          0.1769   -0.0907    2.0861 H         1 <0>         0.1074
     32 H5          0.6638   -1.5296    1.1583 H         1 <0>         0.0833
     33 H6          1.7171   -0.0952    1.1938 H         1 <0>         0.0810
     34 H7         -1.9903    0.0252   -0.9384 H         1 <0>         0.0832
     35 H8         -1.5012   -1.4593   -0.0868 H         1 <0>         0.0832
     36 H9         -1.9880   -0.0204    0.8410 H         1 <0>         0.1078
     37 H10         0.6338   -1.3650   -1.2869 H         1 <0>         0.4313
     38 H11         2.0644    1.1979   -1.2230 H         1 <0>         0.1483
     39 H12         2.5535   -0.2867   -0.3714 H         1 <0>         0.1419
     40 H13         2.2472    0.0130   -3.3935 H         1 <0>         0.1322
     41 H14         4.2276    1.1856   -2.3860 H         1 <0>         0.0782
     42 H15         4.7392   -0.3634   -1.6739 H         1 <0>         0.0734
     43 H16         8.5743    2.0595   -3.9650 H         1 <0>         0.1401
     44 H17        11.8351    0.9570   -6.4866 H         1 <0>         0.1485
     45 H18        10.5106   -0.9016   -7.4059 H         1 <0>         0.1450
     46 H19         7.7058   -1.5621   -7.7357 H         1 <0>         0.1158
     47 H20         4.7357   -1.5210   -4.9797 H         1 <0>         0.0989
     48 H21         4.7767   -2.1062   -6.6421 H         1 <0>         0.0796
     49 H22         6.1977   -3.2181   -4.2279 H         1 <0>         0.0567
     50 H23         5.0236   -4.0148   -5.2984 H         1 <0>         0.0702
     51 H24         7.3157   -4.8018   -5.7775 H         1 <0>         0.0740
     52 H25         6.6644   -3.8933   -7.1661 H         1 <0>         0.0712
     53 H26         9.0102   -3.2380   -6.5680 H         1 <0>         0.0811
     54 H27         8.4080   -2.6923   -4.9860 H         1 <0>         0.0657
     55 H28         3.9648   -0.0658   -6.3169 H         1 <0>         0.0475
     56 H29         5.0145    1.2385   -5.7125 H         1 <0>         0.0386
     57 H30         4.3935    1.2962   -7.3796 H         1 <0>         0.0903
     58 H31         3.1659   -2.2309   -1.7967 H         1 <0>         0.3900
     59 H32         0.1810    0.0092   -2.0752 H         1 <0>         0.4283
@<TRIPOS>BOND
     1    1    2 1
     2    1   28 1
     3    1   29 1
     4    1   30 1
     5    2    3 1
     6    2    4 1
     7    2    5 1
     8    3   31 1
     9    3   32 1
    10    3   33 1
    11    4   34 1
    12    4   35 1
    13    4   36 1
    14    5    6 1
    15    5   37 1
    16    5   59 1
    17    6    7 1
    18    6   38 1
    19    6   39 1
    20    7    8 1
    21    7   27 1
    22    7   40 1
    23    8    9 1
    24    8   41 1
    25    8   42 1
    26    9   10 1
    27   10   11 2
    28   11   19 1
    29   11   12 1
    30   12   17 ar
    31   12   13 ar
    32   13   14 ar
    33   13   43 1
    34   14   15 ar
    35   14   26 1
    36   15   16 ar
    37   15   44 1
    38   16   17 ar
    39   16   45 1
    40   17   18 1
    41   18   23 1
    42   18   19 1
    43   18   46 1
    44   19   20 1
    45   19   24 1
    46   20   21 1
    47   20   47 1
    48   20   48 1
    49   21   22 1
    50   21   49 1
    51   21   50 1
    52   22   23 1
    53   22   51 1
    54   22   52 1
    55   23   53 1
    56   23   54 1
    57   24   25 1
    58   25   55 1
    59   25   56 1
    60   25   57 1
    61   27   58 1
@<TRIPOS>MOLECULE
CHEMBL325371__6
   59    61     0     0     0
SMALL
USER_CHARGES

@<TRIPOS>ATOM
      1 C1         -0.1924    1.8731   -0.2269 C.3       1 <0>        -0.1797
      2 C2         -0.3459    0.3601   -0.3945 C.3       1 <0>         0.0549
      3 C3          0.2330   -0.3501    0.8308 C.3       1 <0>        -0.1792
      4 C4         -1.8289    0.0102   -0.5333 C.3       1 <0>        -0.1774
      5 N1          0.3746   -0.0749   -1.5984 N.4       1 <0>        -0.4976
      6 C5          1.7985    0.2610   -1.4651 C.3       1 <0>        -0.0497
      7 C6          2.5490   -0.1920   -2.7191 C.3       1 <0>         0.0903
      8 C7          4.0320    0.1579   -2.5802 C.3       1 <0>         0.0426
      9 O1          4.7120   -0.1587   -3.7965 O.3       1 <0>        -0.2065
     10 N2          6.0983    0.1287   -3.7729 N.2       1 <0>        -0.3103
     11 C8          6.8396   -0.1775   -4.7875 C.2       1 <0>         0.1588
     12 C9          8.2739    0.1459   -4.9775 C.ar      1 <0>        -0.0512
     13 C10         9.0817    1.1060   -4.3621 C.ar      1 <0>        -0.1033
     14 C11        10.4201    1.1947   -4.6901 C.ar      1 <0>         0.0984
     15 C12        10.9641    0.3331   -5.6295 C.ar      1 <0>        -0.1192
     16 C13        10.1670   -0.6088   -6.2533 C.ar      1 <0>        -0.0759
     17 C14         8.8244   -0.6981   -5.9458 C.ar      1 <0>        -0.0627
     18 C15         7.7236   -1.5581   -6.5117 C.3       1 <0>        -0.0740
     19 C16         6.4203   -0.9523   -6.0341 C.3       1 <0>         0.1519
     20 C17         5.7837    0.0258   -7.0038 C.3       1 <0>        -0.0944
     21 C18         5.8435   -0.4638   -8.4443 C.3       1 <0>        -0.1166
     22 C19         7.3125   -0.6699   -8.8291 C.3       1 <0>        -0.1230
     23 C20         7.8710   -1.8014   -7.9863 C.3       1 <0>        -0.1044
     24 O2          5.4997   -1.9868   -5.6814 O.3       1 <0>        -0.3490
     25 C21         5.9789   -2.8696   -4.6650 C.3       1 <0>         0.0230
     26 F1         11.2004    2.1230   -4.0946 F         1 <0>        -0.1303
     27 O3          2.4056   -1.6051   -2.8756 O.3       1 <0>        -0.5420
     28 H1          0.8641    2.1223   -0.1279 H         1 <0>         0.0814
     29 H2         -0.6048    2.3790   -1.0998 H         1 <0>         0.0837
     30 H3         -0.7270    2.1958    0.6665 H         1 <0>         0.1071
     31 H4         -0.3016   -0.0274    1.7242 H         1 <0>         0.1071
     32 H5          0.1236   -1.4280    0.7115 H         1 <0>         0.0832
     33 H6          1.2895   -0.1009    0.9298 H         1 <0>         0.0808
     34 H7         -2.2413    0.5162   -1.4063 H         1 <0>         0.0833
     35 H8         -1.9383   -1.0677   -0.6527 H         1 <0>         0.0832
     36 H9         -2.3635    0.3329    0.3600 H         1 <0>         0.1075
     37 H10         0.2734   -1.0727   -1.7090 H         1 <0>         0.4313
     38 H11         1.9079    1.3389   -1.3457 H         1 <0>         0.1478
     39 H12         2.2110   -0.2449   -0.5922 H         1 <0>         0.1408
     40 H13         2.1365    0.3140   -3.5920 H         1 <0>         0.1330
     41 H14         4.1361    1.2227   -2.3722 H         1 <0>         0.0760
     42 H15         4.4656   -0.4163   -1.7614 H         1 <0>         0.0693
     43 H16         8.6592    1.7787   -3.6304 H         1 <0>         0.1410
     44 H17        12.0139    0.3974   -5.8748 H         1 <0>         0.1488
     45 H18        10.5967   -1.2774   -6.9846 H         1 <0>         0.1442
     46 H19         7.8019   -2.5276   -6.0196 H         1 <0>         0.0943
     47 H20         4.7405    0.1722   -6.7237 H         1 <0>         0.0776
     48 H21         6.3035    0.9813   -6.9337 H         1 <0>         0.0772
     49 H22         5.3061   -1.4080   -8.5326 H         1 <0>         0.0724
     50 H23         5.3936    0.2795   -9.1025 H         1 <0>         0.0726
     51 H24         7.3828   -0.9290   -9.8855 H         1 <0>         0.0740
     52 H25         7.8746    0.2438   -8.6361 H         1 <0>         0.0659
     53 H26         8.9285   -1.9282   -8.2180 H         1 <0>         0.0749
     54 H27         7.3436   -2.7194   -8.2459 H         1 <0>         0.0726
     55 H28         6.8148   -3.4512   -5.0535 H         1 <0>         0.0490
     56 H29         6.3098   -2.2877   -3.8048 H         1 <0>         0.0386
     57 H30         5.1775   -3.5432   -4.3615 H         1 <0>         0.0921
     58 H31         2.7520   -2.1201   -2.1341 H         1 <0>         0.3873
     59 H32        -0.0072    0.3935   -2.4065 H         1 <0>         0.4286
@<TRIPOS>BOND
     1    1    2 1
     2    1   28 1
     3    1   29 1
     4    1   30 1
     5    2    3 1
     6    2    4 1
     7    2    5 1
     8    3   31 1
     9    3   32 1
    10    3   33 1
    11    4   34 1
    12    4   35 1
    13    4   36 1
    14    5    6 1
    15    5   37 1
    16    5   59 1
    17    6    7 1
    18    6   38 1
    19    6   39 1
    20    7    8 1
    21    7   27 1
    22    7   40 1
    23    8    9 1
    24    8   41 1
    25    8   42 1
    26    9   10 1
    27   10   11 2
    28   11   19 1
    29   11   12 1
    30   12   17 ar
    31   12   13 ar
    32   13   14 ar
    33   13   43 1
    34   14   15 ar
    35   14   26 1
    36   15   16 ar
    37   15   44 1
    38   16   17 ar
    39   16   45 1
    40   17   18 1
    41   18   23 1
    42   18   19 1
    43   18   46 1
    44   19   20 1
    45   19   24 1
    46   20   21 1
    47   20   47 1
    48   20   48 1
    49   21   22 1
    50   21   49 1
    51   21   50 1
    52   22   23 1
    53   22   51 1
    54   22   52 1
    55   23   53 1
    56   23   54 1
    57   24   25 1
    58   25   55 1
    59   25   56 1
    60   25   57 1
    61   27   58 1
@<TRIPOS>MOLECULE
CHEMBL325371__7
   59    61     0     0     0
SMALL
USER_CHARGES

@<TRIPOS>ATOM
      1 C1         -0.0187    1.5258    0.0104 C.3       1 <0>        -0.1798
      2 C2          0.0021   -0.0041    0.0020 C.3       1 <0>         0.0549
      3 C3          0.7421   -0.5109    1.2415 C.3       1 <0>        -0.1794
      4 C4         -1.4333   -0.5336    0.0129 C.3       1 <0>        -0.1775
      5 N1          0.6897   -0.4778   -1.2066 N.4       1 <0>        -0.4977
      6 C5          2.0678    0.0307   -1.2170 C.3       1 <0>        -0.0498
      7 C6          2.7840   -0.4628   -2.4758 C.3       1 <0>         0.0887
      8 C7          4.2193    0.0668   -2.4867 C.3       1 <0>         0.0435
      9 O1          4.8516   -0.2959   -3.7158 O.3       1 <0>        -0.2222
     10 N2          6.1913    0.1489   -3.8275 N.2       1 <0>        -0.3035
     11 C8          6.8737   -0.1159   -4.8937 C.2       1 <0>         0.1759
     12 C9          8.2886    0.2550   -5.1991 C.ar      1 <0>        -0.0456
     13 C10         9.0876    1.2804   -4.6974 C.ar      1 <0>        -0.1054
     14 C11        10.3885    1.4250   -5.1384 C.ar      1 <0>         0.0980
     15 C12        10.9009    0.5482   -6.0816 C.ar      1 <0>        -0.1206
     16 C13        10.1158   -0.4712   -6.5853 C.ar      1 <0>        -0.0736
     17 C14         8.8136   -0.6319   -6.1579 C.ar      1 <0>        -0.0539
     18 C15         7.7389   -1.6022   -6.5019 C.3       1 <0>        -0.0424
     19 C16         6.4328   -0.8728   -6.1112 C.3       1 <0>         0.1214
     20 C17         5.3754   -1.9463   -5.9433 C.3       1 <0>        -0.1223
     21 C18         5.1632   -2.5685   -7.3372 C.3       1 <0>        -0.1153
     22 C19         6.4575   -3.1437   -7.9028 C.3       1 <0>        -0.1192
     23 C20         7.5863   -2.0968   -7.9185 C.3       1 <0>        -0.1036
     24 O2          6.0584    0.0406   -7.1443 O.3       1 <0>        -0.3459
     25 C21         4.9637    0.8918   -6.7990 C.3       1 <0>         0.0268
     26 F1         11.1608    2.4205   -4.6509 F         1 <0>        -0.1308
     27 O3          2.8033   -1.8916   -2.4837 O.3       1 <0>        -0.5448
     28 H1          1.0039    1.9031    0.0027 H         1 <0>         0.0815
     29 H2         -0.5459    1.8868   -0.8726 H         1 <0>         0.0835
     30 H3         -0.5289    1.8773    0.9072 H         1 <0>         0.1075
     31 H4          0.2319   -0.1594    2.1383 H         1 <0>         0.1074
     32 H5          0.7568   -1.6008    1.2356 H         1 <0>         0.0834
     33 H6          1.7647   -0.1336    1.2338 H         1 <0>         0.0810
     34 H7         -1.9605   -0.1726   -0.8702 H         1 <0>         0.0832
     35 H8         -1.4185   -1.6235    0.0069 H         1 <0>         0.0832
     36 H9         -1.9435   -0.1821    0.9097 H         1 <0>         0.1078
     37 H10         0.7033   -1.4867   -1.2121 H         1 <0>         0.4314
     38 H11         2.0530    1.1205   -1.2110 H         1 <0>         0.1482
     39 H12         2.5950   -0.3304   -0.3340 H         1 <0>         0.1420
     40 H13         2.2568   -0.1017   -3.3589 H         1 <0>         0.1319
     41 H14         4.2068    1.1525   -2.3912 H         1 <0>         0.0772
     42 H15         4.7722   -0.3649   -1.6524 H         1 <0>         0.0735
     43 H16         8.6887    1.9638   -3.9625 H         1 <0>         0.1393
     44 H17        11.9186    0.6626   -6.4248 H         1 <0>         0.1481
     45 H18        10.5250   -1.1482   -7.3206 H         1 <0>         0.1434
     46 H19         7.8336   -2.4663   -5.8443 H         1 <0>         0.0974
     47 H20         5.7219   -2.7065   -5.2432 H         1 <0>         0.0760
     48 H21         4.4458   -1.5030   -5.5861 H         1 <0>         0.0779
     49 H22         4.4234   -3.3654   -7.2616 H         1 <0>         0.0649
     50 H23         4.7891   -1.8015   -8.0154 H         1 <0>         0.0704
     51 H24         6.7635   -3.9946   -7.2942 H         1 <0>         0.0618
     52 H25         6.2785   -3.4847   -8.9225 H         1 <0>         0.0708
     53 H26         7.3289   -1.2669   -8.5767 H         1 <0>         0.0853
     54 H27         8.5133   -2.5635   -8.2516 H         1 <0>         0.0739
     55 H28         4.0875    0.2836   -6.5743 H         1 <0>         0.0447
     56 H29         5.2275    1.4861   -5.9242 H         1 <0>         0.0358
     57 H30         4.7411    1.5547   -7.6351 H         1 <0>         0.0930
     58 H31         3.2576   -2.2830   -1.7250 H         1 <0>         0.3901
     59 H32         0.2017   -0.1436   -2.0240 H         1 <0>         0.4283
@<TRIPOS>BOND
     1    1    2 1
     2    1   28 1
     3    1   29 1
     4    1   30 1
     5    2    3 1
     6    2    4 1
     7    2    5 1
     8    3   31 1
     9    3   32 1
    10    3   33 1
    11    4   34 1
    12    4   35 1
    13    4   36 1
    14    5    6 1
    15    5   37 1
    16    5   59 1
    17    6    7 1
    18    6   38 1
    19    6   39 1
    20    7    8 1
    21    7   27 1
    22    7   40 1
    23    8    9 1
    24    8   41 1
    25    8   42 1
    26    9   10 1
    27   10   11 2
    28   11   19 1
    29   11   12 1
    30   12   17 ar
    31   12   13 ar
    32   13   14 ar
    33   13   43 1
    34   14   15 ar
    35   14   26 1
    36   15   16 ar
    37   15   44 1
    38   16   17 ar
    39   16   45 1
    40   17   18 1
    41   18   23 1
    42   18   19 1
    43   18   46 1
    44   19   20 1
    45   19   24 1
    46   20   21 1
    47   20   47 1
    48   20   48 1
    49   21   22 1
    50   21   49 1
    51   21   50 1
    52   22   23 1
    53   22   51 1
    54   22   52 1
    55   23   53 1
    56   23   54 1
    57   24   25 1
    58   25   55 1
    59   25   56 1
    60   25   57 1
    61   27   58 1
@<TRIPOS>MOLECULE
CHEMBL107981
   62    64     0     0     0
SMALL
USER_CHARGES

@<TRIPOS>ATOM
      1 C1          1.2974    2.0229    0.9957 C.3       1 <0>        -0.1791
      2 C2          1.2627    0.4944    1.0535 C.3       1 <0>         0.0549
      3 C3          2.2058    0.0042    2.1541 C.3       1 <0>        -0.1797
      4 C4         -0.1622    0.0277    1.3578 C.3       1 <0>        -0.1775
      5 N1          1.6922   -0.0544   -0.2396 N.4       1 <0>        -0.4983
      6 C5          3.0603    0.3936   -0.5317 C.3       1 <0>        -0.0493
      7 C6          3.5076   -0.1780   -1.8786 C.3       1 <0>         0.0889
      8 C7          4.9734    0.1846   -2.1251 C.3       1 <0>         0.0425
      9 O1          5.4248   -0.4460   -3.3254 O.3       1 <0>        -0.2179
     10 N2          6.7767   -0.1731   -3.6460 N.2       1 <0>        -0.3071
     11 C8          7.3053   -0.6856   -4.7093 C.2       1 <0>         0.1722
     12 C9          8.7005   -0.5202   -5.2038 C.ar      1 <0>        -0.0797
     13 C10         9.8727   -0.1835   -4.5257 C.ar      1 <0>        -0.0699
     14 C11        11.0639   -0.0809   -5.2125 C.ar      1 <0>        -0.1219
     15 C12        11.0994   -0.3116   -6.5764 C.ar      1 <0>        -0.0870
     16 C13         9.9446   -0.6496   -7.2566 C.ar      1 <0>        -0.1065
     17 C14         8.7433   -0.7612   -6.5850 C.ar      1 <0>        -0.0542
     18 C15         7.3656   -1.1236   -7.0388 C.3       1 <0>        -0.0797
     19 C16         6.6495   -1.5883   -5.7207 C.3       1 <0>         0.1271
     20 C17         5.1735   -1.2800   -5.9851 C.3       1 <0>        -0.1106
     21 C18         4.4380   -2.6181   -6.1306 C.3       1 <0>        -0.1009
     22 C19         5.1216   -3.4666   -7.2515 C.3       1 <0>        -0.1202
     23 C20         5.7421   -2.5733   -8.3014 C.3       1 <0>        -0.1155
     24 C21         7.2026   -2.2341   -8.0097 C.3       1 <0>        -0.1123
     25 O2          6.8749   -2.9696   -5.4323 O.3       1 <0>        -0.3322
     26 C22         8.2535   -3.3147   -5.2825 C.3       1 <0>         0.0106
     27 O3          2.6992    0.3712   -2.9212 O.3       1 <0>        -0.5440
     28 H1          2.3125    2.3554    0.7790 H         1 <0>         0.0809
     29 H2          0.6255    2.3721    0.2116 H         1 <0>         0.0834
     30 H3          0.9787    2.4301    1.9552 H         1 <0>         0.1070
     31 H4          1.8872    0.4114    3.1136 H         1 <0>         0.1071
     32 H5          2.1811   -1.0848    2.1953 H         1 <0>         0.0836
     33 H6          3.2210    0.3367    1.9374 H         1 <0>         0.0815
     34 H7         -0.8341    0.3769    0.5737 H         1 <0>         0.0832
     35 H8         -0.1869   -1.0612    1.3990 H         1 <0>         0.0832
     36 H9         -0.4809    0.4349    2.3173 H         1 <0>         0.1075
     37 H10         1.6693   -1.0625   -0.2015 H         1 <0>         0.4283
     38 H11         3.0850    1.4826   -0.5730 H         1 <0>         0.1418
     39 H12         3.7322    0.0444    0.2523 H         1 <0>         0.1474
     40 H13         3.3985   -1.2624   -1.8673 H         1 <0>         0.1321
     41 H14         5.0684    1.2659   -2.2249 H         1 <0>         0.0716
     42 H15         5.5784   -0.1573   -1.2854 H         1 <0>         0.0756
     43 H16         9.8468   -0.0026   -3.4613 H         1 <0>         0.1272
     44 H17        11.9698    0.1800   -4.6855 H         1 <0>         0.1344
     45 H18        12.0335   -0.2267   -7.1119 H         1 <0>         0.1346
     46 H19         9.9821   -0.8271   -8.3213 H         1 <0>         0.1314
     47 H20         6.8609   -0.2339   -7.4156 H         1 <0>         0.0998
     48 H21         4.7574   -0.7186   -5.1486 H         1 <0>         0.0870
     49 H22         5.0754   -0.7025   -6.9043 H         1 <0>         0.0824
     50 H23         4.4809   -3.1611   -5.1864 H         1 <0>         0.0646
     51 H24         3.3974   -2.4339   -6.3976 H         1 <0>         0.0563
     52 H25         5.8979   -4.0892   -6.8066 H         1 <0>         0.0807
     53 H26         4.3753   -4.1071   -7.7216 H         1 <0>         0.0559
     54 H27         5.6835   -3.0734   -9.2682 H         1 <0>         0.0650
     55 H28         5.1742   -1.6444   -8.3533 H         1 <0>         0.0617
     56 H29         7.6991   -1.9613   -8.9409 H         1 <0>         0.0662
     57 H30         7.6837   -3.1253   -7.6068 H         1 <0>         0.0729
     58 H31         8.3473   -4.3944   -5.1663 H         1 <0>         0.0904
     59 H32         8.8061   -2.9950   -6.1660 H         1 <0>         0.0587
     60 H33         8.6587   -2.8178   -4.4010 H         1 <0>         0.0431
     61 H34         2.7472    1.3346   -2.9900 H         1 <0>         0.3894
     62 H35         1.0702    0.2688   -0.9654 H         1 <0>         0.4317
@<TRIPOS>BOND
     1    1    2 1
     2    1   28 1
     3    1   29 1
     4    1   30 1
     5    2    3 1
     6    2    4 1
     7    2    5 1
     8    3   31 1
     9    3   32 1
    10    3   33 1
    11    4   34 1
    12    4   35 1
    13    4   36 1
    14    5    6 1
    15    5   37 1
    16    5   62 1
    17    6    7 1
    18    6   38 1
    19    6   39 1
    20    7    8 1
    21    7   27 1
    22    7   40 1
    23    8    9 1
    24    8   41 1
    25    8   42 1
    26    9   10 1
    27   10   11 2
    28   11   19 1
    29   11   12 1
    30   12   17 ar
    31   12   13 ar
    32   13   14 ar
    33   13   43 1
    34   14   15 ar
    35   14   44 1
    36   15   16 ar
    37   15   45 1
    38   16   17 ar
    39   16   46 1
    40   17   18 1
    41   18   24 1
    42   18   19 1
    43   18   47 1
    44   19   20 1
    45   19   25 1
    46   20   21 1
    47   20   48 1
    48   20   49 1
    49   21   22 1
    50   21   50 1
    51   21   51 1
    52   22   23 1
    53   22   52 1
    54   22   53 1
    55   23   24 1
    56   23   54 1
    57   23   55 1
    58   24   56 1
    59   24   57 1
    60   25   26 1
    61   26   58 1
    62   26   59 1
    63   26   60 1
    64   27   61 1
@<TRIPOS>MOLECULE
CHEMBL107981__1
   62    64     0     0     0
SMALL
USER_CHARGES

@<TRIPOS>ATOM
      1 C1          0.7584    2.9113   -0.0837 C.3       1 <0>        -0.1791
      2 C2          0.6356    1.3998    0.1193 C.3       1 <0>         0.0548
      3 C3          1.4175    0.9877    1.3682 C.3       1 <0>        -0.1796
      4 C4         -0.8379    1.0268    0.2939 C.3       1 <0>        -0.1774
      5 N1          1.1818    0.7024   -1.0526 N.4       1 <0>        -0.4982
      6 C5          2.5965    1.0606   -1.2203 C.3       1 <0>        -0.0495
      7 C6          3.1653    0.3343   -2.4409 C.3       1 <0>         0.0900
      8 C7          4.6671    0.6082   -2.5433 C.3       1 <0>         0.0439
      9 O1          5.2199   -0.1617   -3.6128 O.3       1 <0>        -0.2114
     10 N2          6.6125    0.0201   -3.7934 N.2       1 <0>        -0.3145
     11 C8          7.2323   -0.6215   -4.7298 C.2       1 <0>         0.1682
     12 C9          8.6533   -0.4601   -5.1004 C.ar      1 <0>        -0.0813
     13 C10         9.6359    0.3788   -4.5579 C.ar      1 <0>        -0.0666
     14 C11        10.9160    0.3622   -5.0668 C.ar      1 <0>        -0.1244
     15 C12        11.2355   -0.4822   -6.1155 C.ar      1 <0>        -0.0847
     16 C13        10.2721   -1.3121   -6.6574 C.ar      1 <0>        -0.1076
     17 C14         8.9837   -1.3063   -6.1555 C.ar      1 <0>        -0.0541
     18 C15         7.7687   -2.1059   -6.5637 C.3       1 <0>        -0.0766
     19 C16         6.6331   -1.6726   -5.6332 C.3       1 <0>         0.1410
     20 C17         6.1579   -2.8602   -4.7965 C.3       1 <0>        -0.1110
     21 C18         5.1881   -3.7102   -5.6177 C.3       1 <0>        -0.1138
     22 C19         5.9276   -4.9047   -6.2180 C.3       1 <0>        -0.1227
     23 C20         7.0404   -4.4265   -7.1497 C.3       1 <0>        -0.1207
     24 C21         8.0504   -3.5975   -6.3686 C.3       1 <0>        -0.1228
     25 O2          5.5555   -1.1203   -6.3920 O.3       1 <0>        -0.3495
     26 C22         5.9074    0.0478   -7.1361 C.3       1 <0>         0.0244
     27 O3          2.5135    0.8054   -3.6221 O.3       1 <0>        -0.5417
     28 H1          1.8082    3.1771   -0.2081 H         1 <0>         0.0809
     29 H2          0.2014    3.2049   -0.9734 H         1 <0>         0.0834
     30 H3          0.3532    3.4288    0.7859 H         1 <0>         0.1070
     31 H4          1.0123    1.5052    2.2377 H         1 <0>         0.1071
     32 H5          1.3300   -0.0891    1.5127 H         1 <0>         0.0835
     33 H6          2.4673    1.2535    1.2438 H         1 <0>         0.0814
     34 H7         -1.3949    1.3203   -0.5959 H         1 <0>         0.0832
     35 H8         -0.9254   -0.0501    0.4385 H         1 <0>         0.0831
     36 H9         -1.2431    1.5442    1.1634 H         1 <0>         0.1074
     37 H10         1.1008   -0.2944   -0.9188 H         1 <0>         0.4281
     38 H11         2.6840    2.1375   -1.3649 H         1 <0>         0.1414
     39 H12         3.1536    0.7671   -0.3306 H         1 <0>         0.1470
     40 H13         2.9978   -0.7377   -2.3364 H         1 <0>         0.1309
     41 H14         4.8307    1.6684   -2.7365 H         1 <0>         0.0700
     42 H15         5.1518    0.3305   -1.6073 H         1 <0>         0.0739
     43 H16         9.3893    1.0395   -3.7399 H         1 <0>         0.1275
     44 H17        11.6715    1.0096   -4.6467 H         1 <0>         0.1338
     45 H18        12.2402   -0.4926   -6.5117 H         1 <0>         0.1348
     46 H19        10.5268   -1.9680   -7.4767 H         1 <0>         0.1321
     47 H20         7.5166   -1.9034   -7.6046 H         1 <0>         0.1060
     48 H21         7.0160   -3.4665   -4.5064 H         1 <0>         0.0980
     49 H22         5.6529   -2.4951   -3.9022 H         1 <0>         0.0668
     50 H23         4.3848   -4.0678   -4.9735 H         1 <0>         0.0601
     51 H24         4.7658   -3.1050   -6.4199 H         1 <0>         0.0829
     52 H25         6.3608   -5.5014   -5.4152 H         1 <0>         0.0610
     53 H26         5.2245   -5.5184   -6.7811 H         1 <0>         0.0651
     54 H27         7.5397   -5.2895   -7.5902 H         1 <0>         0.0675
     55 H28         6.6106   -3.8146   -7.9428 H         1 <0>         0.0664
     56 H29         9.0556   -3.8262   -6.7228 H         1 <0>         0.0713
     57 H30         7.9741   -3.8457   -5.3100 H         1 <0>         0.0848
     58 H31         5.0168    0.4564   -7.6136 H         1 <0>         0.0913
     59 H32         6.3331    0.7925   -6.4635 H         1 <0>         0.0387
     60 H33         6.6407   -0.2144   -7.8987 H         1 <0>         0.0484
     61 H34         2.6206    1.7536   -3.7788 H         1 <0>         0.3885
     62 H35         0.6661    0.9742   -1.8763 H         1 <0>         0.4318
@<TRIPOS>BOND
     1    1    2 1
     2    1   28 1
     3    1   29 1
     4    1   30 1
     5    2    3 1
     6    2    4 1
     7    2    5 1
     8    3   31 1
     9    3   32 1
    10    3   33 1
    11    4   34 1
    12    4   35 1
    13    4   36 1
    14    5    6 1
    15    5   37 1
    16    5   62 1
    17    6    7 1
    18    6   38 1
    19    6   39 1
    20    7    8 1
    21    7   27 1
    22    7   40 1
    23    8    9 1
    24    8   41 1
    25    8   42 1
    26    9   10 1
    27   10   11 2
    28   11   19 1
    29   11   12 1
    30   12   17 ar
    31   12   13 ar
    32   13   14 ar
    33   13   43 1
    34   14   15 ar
    35   14   44 1
    36   15   16 ar
    37   15   45 1
    38   16   17 ar
    39   16   46 1
    40   17   18 1
    41   18   24 1
    42   18   19 1
    43   18   47 1
    44   19   20 1
    45   19   25 1
    46   20   21 1
    47   20   48 1
    48   20   49 1
    49   21   22 1
    50   21   50 1
    51   21   51 1
    52   22   23 1
    53   22   52 1
    54   22   53 1
    55   23   24 1
    56   23   54 1
    57   23   55 1
    58   24   56 1
    59   24   57 1
    60   25   26 1
    61   26   58 1
    62   26   59 1
    63   26   60 1
    64   27   61 1
@<TRIPOS>MOLECULE
CHEMBL107981__2
   62    64     0     0     0
SMALL
USER_CHARGES

@<TRIPOS>ATOM
      1 C1          0.0263    1.5157    0.0676 C.3       1 <0>        -0.1790
      2 C2          0.0496   -0.0141    0.0608 C.3       1 <0>         0.0548
      3 C3          0.8010   -0.5182    1.2946 C.3       1 <0>        -0.1796
      4 C4         -1.3847   -0.5461    0.0846 C.3       1 <0>        -0.1775
      5 N1          0.7277   -0.4881   -1.1530 N.4       1 <0>        -0.4982
      6 C5          2.1048    0.0226   -1.1758 C.3       1 <0>        -0.0493
      7 C6          2.8110   -0.4711   -2.4401 C.3       1 <0>         0.0896
      8 C7          4.2798   -0.0441   -2.4036 C.3       1 <0>         0.0443
      9 O1          4.9664   -0.6031   -3.5252 O.3       1 <0>        -0.2131
     10 N2          6.3405   -0.2666   -3.5856 N.2       1 <0>        -0.3133
     11 C8          7.0732   -0.7111   -4.5542 C.2       1 <0>         0.1685
     12 C9          8.4907   -0.3732   -4.7976 C.ar      1 <0>        -0.0813
     13 C10         9.3510    0.4707   -4.0826 C.ar      1 <0>        -0.0665
     14 C11        10.6536    0.6408   -4.4973 C.ar      1 <0>        -0.1244
     15 C12        11.1169   -0.0213   -5.6205 C.ar      1 <0>        -0.0847
     16 C13        10.2751   -0.8558   -6.3315 C.ar      1 <0>        -0.1077
     17 C14         8.9652   -1.0353   -5.9268 C.ar      1 <0>        -0.0548
     18 C15         7.8618   -1.8784   -6.5214 C.3       1 <0>        -0.0771
     19 C16         6.6328   -1.6721   -5.6325 C.3       1 <0>         0.1405
     20 C17         5.5013   -1.0471   -6.4483 C.3       1 <0>        -0.1135
     21 C18         4.7743   -2.1378   -7.2354 C.3       1 <0>        -0.1131
     22 C19         5.2921   -2.1714   -8.6722 C.3       1 <0>        -0.1228
     23 C20         6.7856   -2.4933   -8.6909 C.3       1 <0>        -0.1202
     24 C21         7.5643   -1.4005   -7.9445 C.3       1 <0>        -0.1213
     25 O2          6.2198   -2.9122   -5.0548 O.3       1 <0>        -0.3513
     26 C22         7.2011   -3.5145   -4.2084 C.3       1 <0>         0.0209
     27 O3          2.1791    0.0942   -3.5903 O.3       1 <0>        -0.5434
     28 H1          1.0482    1.8947    0.0507 H         1 <0>         0.0809
     29 H2         -0.5090    1.8748   -0.8114 H         1 <0>         0.0834
     30 H3         -0.4768    1.8675    0.9683 H         1 <0>         0.1070
     31 H4          0.2979   -0.1664    2.1953 H         1 <0>         0.1071
     32 H5          0.8176   -1.6080    1.2898 H         1 <0>         0.0835
     33 H6          1.8228   -0.1392    1.2777 H         1 <0>         0.0814
     34 H7         -1.9201   -0.1870   -0.7944 H         1 <0>         0.0832
     35 H8         -1.3682   -1.6359    0.0798 H         1 <0>         0.0831
     36 H9         -1.8879   -0.1943    0.9853 H         1 <0>         0.1074
     37 H10         0.7430   -1.4970   -1.1575 H         1 <0>         0.4282
     38 H11         2.0882    1.1125   -1.1710 H         1 <0>         0.1415
     39 H12         2.6401   -0.3365   -0.2968 H         1 <0>         0.1470
     40 H13         2.7498   -1.5583   -2.4894 H         1 <0>         0.1320
     41 H14         4.3431    1.0433   -2.4439 H         1 <0>         0.0704
     42 H15         4.7391   -0.4009   -1.4817 H         1 <0>         0.0739
     43 H16         8.9924    0.9882   -3.2051 H         1 <0>         0.1275
     44 H17        11.3145    1.2918   -3.9444 H         1 <0>         0.1338
     45 H18        12.1387    0.1147   -5.9426 H         1 <0>         0.1348
     46 H19        10.6424   -1.3704   -7.2071 H         1 <0>         0.1321
     47 H20         8.1535   -2.9286   -6.5304 H         1 <0>         0.1054
     48 H21         4.7984   -0.5546   -5.7763 H         1 <0>         0.0745
     49 H22         5.9151   -0.3142   -7.1409 H         1 <0>         0.0964
     50 H23         4.9514   -3.1043   -6.7636 H         1 <0>         0.0807
     51 H24         3.7045   -1.9289   -7.2406 H         1 <0>         0.0610
     52 H25         4.7517   -2.9343   -9.2326 H         1 <0>         0.0645
     53 H26         5.1266   -1.2001   -9.1381 H         1 <0>         0.0611
     54 H27         6.9544   -3.4564   -8.2092 H         1 <0>         0.0665
     55 H28         7.1329   -2.5403   -9.7230 H         1 <0>         0.0666
     56 H29         6.9709   -0.4870   -7.9038 H         1 <0>         0.0854
     57 H30         8.5017   -1.2007   -8.4635 H         1 <0>         0.0716
     58 H31         6.8473   -4.4919   -3.8804 H         1 <0>         0.0922
     59 H32         8.1338   -3.6320   -4.7600 H         1 <0>         0.0508
     60 H33         7.3706   -2.8789   -3.3392 H         1 <0>         0.0382
     61 H34         2.1959    1.0608   -3.6131 H         1 <0>         0.3888
     62 H35         0.2321   -0.1557   -1.9667 H         1 <0>         0.4317
@<TRIPOS>BOND
     1    1    2 1
     2    1   28 1
     3    1   29 1
     4    1   30 1
     5    2    3 1
     6    2    4 1
     7    2    5 1
     8    3   31 1
     9    3   32 1
    10    3   33 1
    11    4   34 1
    12    4   35 1
    13    4   36 1
    14    5    6 1
    15    5   37 1
    16    5   62 1
    17    6    7 1
    18    6   38 1
    19    6   39 1
    20    7    8 1
    21    7   27 1
    22    7   40 1
    23    8    9 1
    24    8   41 1
    25    8   42 1
    26    9   10 1
    27   10   11 2
    28   11   19 1
    29   11   12 1
    30   12   17 ar
    31   12   13 ar
    32   13   14 ar
    33   13   43 1
    34   14   15 ar
    35   14   44 1
    36   15   16 ar
    37   15   45 1
    38   16   17 ar
    39   16   46 1
    40   17   18 1
    41   18   24 1
    42   18   19 1
    43   18   47 1
    44   19   20 1
    45   19   25 1
    46   20   21 1
    47   20   48 1
    48   20   49 1
    49   21   22 1
    50   21   50 1
    51   21   51 1
    52   22   23 1
    53   22   52 1
    54   22   53 1
    55   23   24 1
    56   23   54 1
    57   23   55 1
    58   24   56 1
    59   24   57 1
    60   25   26 1
    61   26   58 1
    62   26   59 1
    63   26   60 1
    64   27   61 1
@<TRIPOS>MOLECULE
CHEMBL107981__3
   62    64     0     0     0
SMALL
USER_CHARGES

@<TRIPOS>ATOM
      1 C1          0.9040    1.0695    0.8827 C.3       1 <0>        -0.1792
      2 C2          0.8238   -0.4486    0.7094 C.3       1 <0>         0.0548
      3 C3          1.6550   -1.1307    1.7979 C.3       1 <0>        -0.1796
      4 C4         -0.6340   -0.8986    0.8238 C.3       1 <0>        -0.1775
      5 N1          1.3485   -0.8190   -0.6117 N.4       1 <0>        -0.4983
      6 C5          2.7482   -0.3868   -0.7215 C.3       1 <0>        -0.0495
      7 C6          3.2946   -0.7726   -2.0975 C.3       1 <0>         0.0889
      8 C7          4.7854   -0.4354   -2.1671 C.3       1 <0>         0.0423
      9 O1          5.3217   -0.9011   -3.4071 O.3       1 <0>        -0.2176
     10 N2          6.7030   -0.6374   -3.5725 N.2       1 <0>        -0.3069
     11 C8          7.3075   -1.0093   -4.6536 C.2       1 <0>         0.1722
     12 C9          8.7441   -0.8282   -5.0028 C.ar      1 <0>        -0.0795
     13 C10         9.6832    0.0955   -4.5424 C.ar      1 <0>        -0.0699
     14 C11        10.9772    0.0613   -5.0171 C.ar      1 <0>        -0.1217
     15 C12        11.3476   -0.8905   -5.9509 C.ar      1 <0>        -0.0871
     16 C13        10.4242   -1.8082   -6.4152 C.ar      1 <0>        -0.1062
     17 C14         9.1226   -1.7866   -5.9545 C.ar      1 <0>        -0.0546
     18 C15         7.9242   -2.6187   -6.2819 C.3       1 <0>        -0.0803
     19 C16         6.7178   -1.7283   -5.8381 C.3       1 <0>         0.1281
     20 C17         5.6305   -2.7467   -5.4867 C.3       1 <0>        -0.1100
     21 C18         4.5340   -2.6430   -6.5544 C.3       1 <0>        -0.1017
     22 C19         5.1665   -2.8494   -7.9689 C.3       1 <0>        -0.1207
     23 C20         6.3738   -3.7561   -7.8925 C.3       1 <0>        -0.1158
     24 C21         7.6735   -2.9818   -7.6992 C.3       1 <0>        -0.1118
     25 O2          6.3056   -0.8228   -6.8639 O.3       1 <0>        -0.3315
     26 C22         7.3317    0.0738   -7.2944 C.3       1 <0>         0.0107
     27 O3          2.5941   -0.0459   -3.1091 O.3       1 <0>        -0.5429
     28 H1          1.9425    1.3901    0.8013 H         1 <0>         0.0809
     29 H2          0.3118    1.5555    0.1073 H         1 <0>         0.0835
     30 H3          0.5147    1.3443    1.8630 H         1 <0>         0.1070
     31 H4          1.2657   -0.8559    2.7782 H         1 <0>         0.1071
     32 H5          1.5979   -2.2122    1.6744 H         1 <0>         0.0835
     33 H6          2.6936   -0.8100    1.7164 H         1 <0>         0.0815
     34 H7         -1.2262   -0.4127    0.0484 H         1 <0>         0.0833
     35 H8         -0.6911   -1.9801    0.7003 H         1 <0>         0.0831
     36 H9         -1.0233   -0.6238    1.8041 H         1 <0>         0.1075
     37 H10         1.2956   -1.8201   -0.7260 H         1 <0>         0.4281
     38 H11         2.8053    0.6947   -0.5981 H         1 <0>         0.1418
     39 H12         3.3403   -0.8728    0.0539 H         1 <0>         0.1474
     40 H13         3.1561   -1.8420   -2.2567 H         1 <0>         0.1312
     41 H14         4.9173    0.6443   -2.0968 H         1 <0>         0.0714
     42 H15         5.3063   -0.9197   -1.3412 H         1 <0>         0.0756
     43 H16         9.3959    0.8386   -3.8134 H         1 <0>         0.1272
     44 H17        11.7021    0.7779   -4.6603 H         1 <0>         0.1344
     45 H18        12.3627   -0.9162   -6.3187 H         1 <0>         0.1346
     46 H19        10.7227   -2.5473   -7.1439 H         1 <0>         0.1313
     47 H20         7.9293   -3.5209   -5.6703 H         1 <0>         0.0992
     48 H21         6.0519   -3.7519   -5.4859 H         1 <0>         0.0824
     49 H22         5.2138   -2.5189   -4.5055 H         1 <0>         0.0820
     50 H23         3.7805   -3.4104   -6.3776 H         1 <0>         0.0550
     51 H24         4.0694   -1.6582   -6.5041 H         1 <0>         0.0680
     52 H25         4.4248   -3.2954   -8.6315 H         1 <0>         0.0556
     53 H26         5.4694   -1.8825   -8.3706 H         1 <0>         0.0813
     54 H27         6.2431   -4.4466   -7.0594 H         1 <0>         0.0623
     55 H28         6.4409   -4.3311   -8.8161 H         1 <0>         0.0649
     56 H29         7.6413   -2.0692   -8.2943 H         1 <0>         0.0752
     57 H30         8.4985   -3.5997   -8.0538 H         1 <0>         0.0650
     58 H31         6.9621    0.6779   -8.1231 H         1 <0>         0.0907
     59 H32         7.6152    0.7254   -6.4679 H         1 <0>         0.0433
     60 H33         8.2004   -0.4980   -7.6208 H         1 <0>         0.0581
     61 H34         2.6734    0.9146   -3.0296 H         1 <0>         0.3897
     62 H35         0.8003   -0.3691   -1.3295 H         1 <0>         0.4319
@<TRIPOS>BOND
     1    1    2 1
     2    1   28 1
     3    1   29 1
     4    1   30 1
     5    2    3 1
     6    2    4 1
     7    2    5 1
     8    3   31 1
     9    3   32 1
    10    3   33 1
    11    4   34 1
    12    4   35 1
    13    4   36 1
    14    5    6 1
    15    5   37 1
    16    5   62 1
    17    6    7 1
    18    6   38 1
    19    6   39 1
    20    7    8 1
    21    7   27 1
    22    7   40 1
    23    8    9 1
    24    8   41 1
    25    8   42 1
    26    9   10 1
    27   10   11 2
    28   11   19 1
    29   11   12 1
    30   12   17 ar
    31   12   13 ar
    32   13   14 ar
    33   13   43 1
    34   14   15 ar
    35   14   44 1
    36   15   16 ar
    37   15   45 1
    38   16   17 ar
    39   16   46 1
    40   17   18 1
    41   18   24 1
    42   18   19 1
    43   18   47 1
    44   19   20 1
    45   19   25 1
    46   20   21 1
    47   20   48 1
    48   20   49 1
    49   21   22 1
    50   21   50 1
    51   21   51 1
    52   22   23 1
    53   22   52 1
    54   22   53 1
    55   23   24 1
    56   23   54 1
    57   23   55 1
    58   24   56 1
    59   24   57 1
    60   25   26 1
    61   26   58 1
    62   26   59 1
    63   26   60 1
    64   27   61 1
@<TRIPOS>MOLECULE
CHEMBL107981__4
   62    64     0     0     0
SMALL
USER_CHARGES

@<TRIPOS>ATOM
      1 C1          1.2622    1.9770    0.9407 C.3       1 <0>        -0.1797
      2 C2          1.2723    0.4491    1.0190 C.3       1 <0>         0.0549
      3 C3          2.2295    0.0014    2.1255 C.3       1 <0>        -0.1793
      4 C4         -0.1383   -0.0550    1.3302 C.3       1 <0>        -0.1774
      5 N1          1.7175   -0.1042   -0.2670 N.4       1 <0>        -0.4977
      6 C5          3.0719    0.3797   -0.5658 C.3       1 <0>        -0.0497
      7 C6          3.5355   -0.1965   -1.9051 C.3       1 <0>         0.0888
      8 C7          4.9462    0.3075   -2.2163 C.3       1 <0>         0.0424
      9 O1          5.3337   -0.1352   -3.5186 O.3       1 <0>        -0.2176
     10 N2          6.6309    0.2801   -3.9057 N.2       1 <0>        -0.3070
     11 C8          7.0990   -0.0564   -5.0634 C.2       1 <0>         0.1720
     12 C9          8.4315    0.2772   -5.6395 C.ar      1 <0>        -0.0795
     13 C10         9.6323    0.6202   -5.0170 C.ar      1 <0>        -0.0698
     14 C11        10.7496    0.8988   -5.7754 C.ar      1 <0>        -0.1217
     15 C12        10.6823    0.8390   -7.1562 C.ar      1 <0>        -0.0871
     16 C13         9.4987    0.4962   -7.7823 C.ar      1 <0>        -0.1064
     17 C14         8.3706    0.2097   -7.0392 C.ar      1 <0>        -0.0544
     18 C15         6.9867   -0.2021   -7.4273 C.3       1 <0>        -0.0798
     19 C16         6.4212   -0.8784   -6.1277 C.3       1 <0>         0.1280
     20 C17         4.9102   -0.6574   -6.2354 C.3       1 <0>        -0.1097
     21 C18         4.2582   -2.0216   -6.4927 C.3       1 <0>        -0.1018
     22 C19         4.8983   -2.6713   -7.7623 C.3       1 <0>        -0.1201
     23 C20         5.3628   -1.6111   -8.7347 C.3       1 <0>        -0.1154
     24 C21         6.8165   -1.1959   -8.5163 C.3       1 <0>        -0.1125
     25 O2          6.7647   -2.2624   -6.0361 O.3       1 <0>        -0.3310
     26 C22         8.1715   -2.5135   -6.0389 C.3       1 <0>         0.0108
     27 O3          3.5449   -1.6236   -1.8320 O.3       1 <0>        -0.5435
     28 H1          2.2672    2.3361    0.7190 H         1 <0>         0.0815
     29 H2          0.5803    2.2959    0.1524 H         1 <0>         0.0835
     30 H3          0.9320    2.3876    1.8948 H         1 <0>         0.1071
     31 H4          1.8992    0.4120    3.0797 H         1 <0>         0.1071
     32 H5          2.2367   -1.0871    2.1813 H         1 <0>         0.0833
     33 H6          3.2345    0.3605    1.9038 H         1 <0>         0.0810
     34 H7         -0.8202    0.2639    0.5419 H         1 <0>         0.0832
     35 H8         -0.1311   -1.1436    1.3860 H         1 <0>         0.0832
     36 H9         -0.4686    0.3555    2.2843 H         1 <0>         0.1075
     37 H10         1.7241   -1.1119   -0.2153 H         1 <0>         0.4314
     38 H11         3.0647    1.4683   -0.6216 H         1 <0>         0.1478
     39 H12         3.7538    0.0608    0.2225 H         1 <0>         0.1413
     40 H13         2.8536    0.1224   -2.6934 H         1 <0>         0.1321
     41 H14         4.9580    1.3970   -2.1845 H         1 <0>         0.0759
     42 H15         5.6437   -0.0851   -1.4765 H         1 <0>         0.0711
     43 H16         9.6865    0.6679   -3.9394 H         1 <0>         0.1272
     44 H17        11.6779    1.1643   -5.2913 H         1 <0>         0.1344
     45 H18        11.5584    1.0615   -7.7473 H         1 <0>         0.1346
     46 H19         9.4556    0.4528   -8.8606 H         1 <0>         0.1314
     47 H20         6.3916    0.6842   -7.6473 H         1 <0>         0.0995
     48 H21         4.5309   -0.2361   -5.3044 H         1 <0>         0.0821
     49 H22         4.6934    0.0180   -7.0630 H         1 <0>         0.0825
     50 H23         4.4198   -2.6701   -5.6317 H         1 <0>         0.0680
     51 H24         3.1881   -1.8888   -6.6525 H         1 <0>         0.0551
     52 H25         5.7510   -3.2802   -7.4619 H         1 <0>         0.0811
     53 H26         4.1596   -3.3066   -8.2509 H         1 <0>         0.0561
     54 H27         5.2548   -1.9932   -9.7498 H         1 <0>         0.0651
     55 H28         4.7303   -0.7303   -8.6235 H         1 <0>         0.0612
     56 H29         7.2105   -0.7739   -9.4408 H         1 <0>         0.0662
     57 H30         7.3905   -2.0888   -8.2688 H         1 <0>         0.0732
     58 H31         8.3486   -3.5886   -6.0689 H         1 <0>         0.0905
     59 H32         8.6222   -2.0465   -6.9146 H         1 <0>         0.0584
     60 H33         8.6167   -2.0970   -5.1354 H         1 <0>         0.0430
     61 H34         4.1317   -1.9786   -1.1502 H         1 <0>         0.3893
     62 H35         1.0862    0.1910   -0.9967 H         1 <0>         0.4284
@<TRIPOS>BOND
     1    1    2 1
     2    1   28 1
     3    1   29 1
     4    1   30 1
     5    2    3 1
     6    2    4 1
     7    2    5 1
     8    3   31 1
     9    3   32 1
    10    3   33 1
    11    4   34 1
    12    4   35 1
    13    4   36 1
    14    5    6 1
    15    5   37 1
    16    5   62 1
    17    6    7 1
    18    6   38 1
    19    6   39 1
    20    7    8 1
    21    7   27 1
    22    7   40 1
    23    8    9 1
    24    8   41 1
    25    8   42 1
    26    9   10 1
    27   10   11 2
    28   11   19 1
    29   11   12 1
    30   12   17 ar
    31   12   13 ar
    32   13   14 ar
    33   13   43 1
    34   14   15 ar
    35   14   44 1
    36   15   16 ar
    37   15   45 1
    38   16   17 ar
    39   16   46 1
    40   17   18 1
    41   18   24 1
    42   18   19 1
    43   18   47 1
    44   19   20 1
    45   19   25 1
    46   20   21 1
    47   20   48 1
    48   20   49 1
    49   21   22 1
    50   21   50 1
    51   21   51 1
    52   22   23 1
    53   22   52 1
    54   22   53 1
    55   23   24 1
    56   23   54 1
    57   23   55 1
    58   24   56 1
    59   24   57 1
    60   25   26 1
    61   26   58 1
    62   26   59 1
    63   26   60 1
    64   27   61 1
@<TRIPOS>MOLECULE
CHEMBL107981__5
   62    64     0     0     0
SMALL
USER_CHARGES

@<TRIPOS>ATOM
      1 C1          0.6565    2.9050   -0.0361 C.3       1 <0>        -0.1796
      2 C2          0.5660    1.3937    0.1849 C.3       1 <0>         0.0548
      3 C3          1.3593    1.0129    1.4365 C.3       1 <0>        -0.1791
      4 C4         -0.8990    0.9919    0.3678 C.3       1 <0>        -0.1774
      5 N1          1.1238    0.6942   -0.9801 N.4       1 <0>        -0.4976
      6 C5          2.5303    1.0800   -1.1557 C.3       1 <0>        -0.0495
      7 C6          3.1114    0.3514   -2.3692 C.3       1 <0>         0.0897
      8 C7          4.5763    0.7533   -2.5521 C.3       1 <0>         0.0441
      9 O1          5.0856    0.1648   -3.7505 O.3       1 <0>        -0.2115
     10 N2          6.4415    0.4763   -4.0140 N.2       1 <0>        -0.3145
     11 C8          7.0202    0.0039   -5.0697 C.2       1 <0>         0.1682
     12 C9          8.3894    0.3205   -5.5258 C.ar      1 <0>        -0.0814
     13 C10         9.3556    1.1620   -4.9585 C.ar      1 <0>        -0.0666
     14 C11        10.5849    1.3081   -5.5631 C.ar      1 <0>        -0.1245
     15 C12        10.8693    0.6251   -6.7324 C.ar      1 <0>        -0.0847
     16 C13         9.9214   -0.2061   -7.2994 C.ar      1 <0>        -0.1077
     17 C14         8.6841   -0.3627   -6.7026 C.ar      1 <0>        -0.0541
     18 C15         7.4959   -1.2001   -7.1139 C.3       1 <0>        -0.0766
     19 C16         6.4183   -0.9737   -6.0506 C.3       1 <0>         0.1416
     20 C17         6.0998   -2.2877   -5.3377 C.3       1 <0>        -0.1111
     21 C18         5.1229   -3.1054   -6.1829 C.3       1 <0>        -0.1129
     22 C19         5.8875   -4.1562   -6.9861 C.3       1 <0>        -0.1230
     23 C20         6.8800   -3.4824   -7.9327 C.3       1 <0>        -0.1205
     24 C21         7.8948   -2.6774   -7.1330 C.3       1 <0>        -0.1229
     25 O2          5.2437   -0.4199   -6.6470 O.3       1 <0>        -0.3513
     26 C22         5.4489    0.8540   -7.2611 C.3       1 <0>         0.0229
     27 O3          3.0268   -1.0601   -2.1627 O.3       1 <0>        -0.5436
     28 H1          1.7001    3.1913   -0.1664 H         1 <0>         0.0814
     29 H2          0.0912    3.1763   -0.9277 H         1 <0>         0.0835
     30 H3          0.2425    3.4240    0.8284 H         1 <0>         0.1071
     31 H4          0.9454    1.5320    2.3010 H         1 <0>         0.1070
     32 H5          1.2949   -0.0637    1.5940 H         1 <0>         0.0833
     33 H6          2.4030    1.2992    1.3062 H         1 <0>         0.0809
     34 H7         -1.4642    1.2632   -0.5238 H         1 <0>         0.0832
     35 H8         -0.9634   -0.0848    0.5253 H         1 <0>         0.0832
     36 H9         -1.3129    1.5109    1.2323 H         1 <0>         0.1074
     37 H10         1.0641   -0.3025   -0.8344 H         1 <0>         0.4313
     38 H11         2.5948    2.1567   -1.3132 H         1 <0>         0.1475
     39 H12         3.0955    0.8087   -0.2641 H         1 <0>         0.1409
     40 H13         2.5461    0.6227   -3.2608 H         1 <0>         0.1328
     41 H14         4.6494    1.8386   -2.6207 H         1 <0>         0.0744
     42 H15         5.1582    0.4031   -1.6995 H         1 <0>         0.0695
     43 H16         9.1362    1.6971   -4.0464 H         1 <0>         0.1275
     44 H17        11.3278    1.9572   -5.1237 H         1 <0>         0.1338
     45 H18        11.8341    0.7420   -7.2035 H         1 <0>         0.1348
     46 H19        10.1484   -0.7357   -8.2129 H         1 <0>         0.1321
     47 H20         7.1412   -0.8932   -8.0978 H         1 <0>         0.1058
     48 H21         7.0193   -2.8552   -5.1947 H         1 <0>         0.0971
     49 H22         5.6504   -2.0748   -4.3678 H         1 <0>         0.0702
     50 H23         4.4049   -3.6006   -5.5293 H         1 <0>         0.0614
     51 H24         4.5922   -2.4425   -6.8663 H         1 <0>         0.0814
     52 H25         6.4285   -4.8100   -6.3019 H         1 <0>         0.0610
     53 H26         5.1818   -4.7505   -7.5666 H         1 <0>         0.0648
     54 H27         7.3971   -4.2436   -8.5169 H         1 <0>         0.0674
     55 H28         6.3422   -2.8145   -8.6056 H         1 <0>         0.0659
     56 H29         8.8788   -2.7817   -7.5902 H         1 <0>         0.0711
     57 H30         7.9277   -3.0575   -6.1119 H         1 <0>         0.0851
     58 H31         4.4944    1.2462   -7.6121 H         1 <0>         0.0907
     59 H32         5.8794    1.5427   -6.5341 H         1 <0>         0.0391
     60 H33         6.1295    0.7449   -8.1055 H         1 <0>         0.0493
     61 H34         3.5079   -1.3733   -1.3846 H         1 <0>         0.3881
     62 H35         0.6006    0.9453   -1.8055 H         1 <0>         0.4285
@<TRIPOS>BOND
     1    1    2 1
     2    1   28 1
     3    1   29 1
     4    1   30 1
     5    2    3 1
     6    2    4 1
     7    2    5 1
     8    3   31 1
     9    3   32 1
    10    3   33 1
    11    4   34 1
    12    4   35 1
    13    4   36 1
    14    5    6 1
    15    5   37 1
    16    5   62 1
    17    6    7 1
    18    6   38 1
    19    6   39 1
    20    7    8 1
    21    7   27 1
    22    7   40 1
    23    8    9 1
    24    8   41 1
    25    8   42 1
    26    9   10 1
    27   10   11 2
    28   11   19 1
    29   11   12 1
    30   12   17 ar
    31   12   13 ar
    32   13   14 ar
    33   13   43 1
    34   14   15 ar
    35   14   44 1
    36   15   16 ar
    37   15   45 1
    38   16   17 ar
    39   16   46 1
    40   17   18 1
    41   18   24 1
    42   18   19 1
    43   18   47 1
    44   19   20 1
    45   19   25 1
    46   20   21 1
    47   20   48 1
    48   20   49 1
    49   21   22 1
    50   21   50 1
    51   21   51 1
    52   22   23 1
    53   22   52 1
    54   22   53 1
    55   23   24 1
    56   23   54 1
    57   23   55 1
    58   24   56 1
    59   24   57 1
    60   25   26 1
    61   26   58 1
    62   26   59 1
    63   26   60 1
    64   27   61 1
@<TRIPOS>MOLECULE
CHEMBL107981__6
   62    64     0     0     0
SMALL
USER_CHARGES

@<TRIPOS>ATOM
      1 C1          0.0265    1.5115    0.0621 C.3       1 <0>        -0.1796
      2 C2          0.0515   -0.0183    0.0560 C.3       1 <0>         0.0548
      3 C3          0.8030   -0.5210    1.2903 C.3       1 <0>        -0.1792
      4 C4         -1.3822   -0.5520    0.0794 C.3       1 <0>        -0.1774
      5 N1          0.7306   -0.4921   -1.1574 N.4       1 <0>        -0.4977
      6 C5          2.1072    0.0203   -1.1799 C.3       1 <0>        -0.0496
      7 C6          2.8145   -0.4732   -2.4437 C.3       1 <0>         0.0894
      8 C7          4.2482    0.0604   -2.4671 C.3       1 <0>         0.0441
      9 O1          4.8715   -0.3025   -3.7007 O.3       1 <0>        -0.2130
     10 N2          6.2090    0.1459   -3.8240 N.2       1 <0>        -0.3132
     11 C8          6.8835   -0.1186   -4.8953 C.2       1 <0>         0.1684
     12 C9          8.2481    0.3568   -5.2028 C.ar      1 <0>        -0.0812
     13 C10         9.1075    1.1727   -4.4550 C.ar      1 <0>        -0.0666
     14 C11        10.3545    1.4938   -4.9443 C.ar      1 <0>        -0.1244
     15 C12        10.7628    1.0116   -6.1753 C.ar      1 <0>        -0.0848
     16 C13         9.9216    0.2059   -6.9195 C.ar      1 <0>        -0.1077
     17 C14         8.6671   -0.1239   -6.4406 C.ar      1 <0>        -0.0548
     18 C15         7.5765   -0.9728   -7.0504 C.3       1 <0>        -0.0772
     19 C16         6.4180   -0.9733   -6.0498 C.3       1 <0>         0.1405
     20 C17         5.1799   -0.3449   -6.6891 C.3       1 <0>        -0.1127
     21 C18         4.4636   -1.3857   -7.5500 C.3       1 <0>        -0.1135
     22 C19         4.8559   -1.2038   -9.0152 C.3       1 <0>        -0.1227
     23 C20         6.3606   -1.4025   -9.1905 C.3       1 <0>        -0.1204
     24 C21         7.1245   -0.3505   -8.3736 C.3       1 <0>        -0.1212
     25 O2          6.1425   -2.3030   -5.6047 O.3       1 <0>        -0.3490
     26 C22         7.2324   -2.9245   -4.9207 C.3       1 <0>         0.0220
     27 O3          2.8379   -1.9020   -2.4494 O.3       1 <0>        -0.5423
     28 H1          1.0479    1.8916    0.0454 H         1 <0>         0.0815
     29 H2         -0.5089    1.8696   -0.8172 H         1 <0>         0.0835
     30 H3         -0.4774    1.8630    0.9624 H         1 <0>         0.1070
     31 H4          0.2991   -0.1695    2.1906 H         1 <0>         0.1070
     32 H5          0.8209   -1.6109    1.2859 H         1 <0>         0.0833
     33 H6          1.8244   -0.1409    1.2736 H         1 <0>         0.0809
     34 H7         -1.9176   -0.1938   -0.8000 H         1 <0>         0.0832
     35 H8         -1.3643   -1.6418    0.0750 H         1 <0>         0.0832
     36 H9         -1.8861   -0.2004    0.9797 H         1 <0>         0.1074
     37 H10         0.7472   -1.5010   -1.1615 H         1 <0>         0.4314
     38 H11         2.0894    1.1101   -1.1755 H         1 <0>         0.1476
     39 H12         2.6426   -0.3379   -0.3006 H         1 <0>         0.1409
     40 H13         2.2791   -0.1150   -3.3230 H         1 <0>         0.1319
     41 H14         4.2333    1.1463   -2.3732 H         1 <0>         0.0747
     42 H15         4.8091   -0.3684   -1.6366 H         1 <0>         0.0695
     43 H16         8.7919    1.5500   -3.4935 H         1 <0>         0.1275
     44 H17        11.0149    2.1229   -4.3659 H         1 <0>         0.1338
     45 H18        11.7411    1.2656   -6.5558 H         1 <0>         0.1348
     46 H19        10.2458   -0.1681   -7.8794 H         1 <0>         0.1321
     47 H20         7.9374   -1.9879   -7.2159 H         1 <0>         0.1057
     48 H21         4.5059    0.0055   -5.9074 H         1 <0>         0.0704
     49 H22         5.4809    0.4969   -7.3126 H         1 <0>         0.0970
     50 H23         4.7467   -2.3854   -7.2205 H         1 <0>         0.0822
     51 H24         3.3856   -1.2625   -7.4455 H         1 <0>         0.0598
     52 H25         4.3223   -1.9331   -9.6247 H         1 <0>         0.0648
     53 H26         4.5845   -0.1992   -9.3393 H         1 <0>         0.0608
     54 H27         6.6361   -2.4007   -8.8501 H         1 <0>         0.0669
     55 H28         6.6195   -1.2964  -10.2440 H         1 <0>         0.0667
     56 H29         6.4759    0.5017   -8.1708 H         1 <0>         0.0851
     57 H30         7.9975   -0.0161   -8.9341 H         1 <0>         0.0718
     58 H31         6.9761   -3.9593   -4.6935 H         1 <0>         0.0925
     59 H32         8.1196   -2.9004   -5.5534 H         1 <0>         0.0499
     60 H33         7.4328   -2.3878   -3.9934 H         1 <0>         0.0379
     61 H34         3.2994   -2.2908   -1.6938 H         1 <0>         0.3882
     62 H35         0.2351   -0.1606   -1.9714 H         1 <0>         0.4284
@<TRIPOS>BOND
     1    1    2 1
     2    1   28 1
     3    1   29 1
     4    1   30 1
     5    2    3 1
     6    2    4 1
     7    2    5 1
     8    3   31 1
     9    3   32 1
    10    3   33 1
    11    4   34 1
    12    4   35 1
    13    4   36 1
    14    5    6 1
    15    5   37 1
    16    5   62 1
    17    6    7 1
    18    6   38 1
    19    6   39 1
    20    7    8 1
    21    7   27 1
    22    7   40 1
    23    8    9 1
    24    8   41 1
    25    8   42 1
    26    9   10 1
    27   10   11 2
    28   11   19 1
    29   11   12 1
    30   12   17 ar
    31   12   13 ar
    32   13   14 ar
    33   13   43 1
    34   14   15 ar
    35   14   44 1
    36   15   16 ar
    37   15   45 1
    38   16   17 ar
    39   16   46 1
    40   17   18 1
    41   18   24 1
    42   18   19 1
    43   18   47 1
    44   19   20 1
    45   19   25 1
    46   20   21 1
    47   20   48 1
    48   20   49 1
    49   21   22 1
    50   21   50 1
    51   21   51 1
    52   22   23 1
    53   22   52 1
    54   22   53 1
    55   23   24 1
    56   23   54 1
    57   23   55 1
    58   24   56 1
    59   24   57 1
    60   25   26 1
    61   26   58 1
    62   26   59 1
    63   26   60 1
    64   27   61 1
@<TRIPOS>MOLECULE
CHEMBL107981__7
   62    64     0     0     0
SMALL
USER_CHARGES

@<TRIPOS>ATOM
      1 C1          0.9850    1.0864    0.8114 C.3       1 <0>        -0.1798
      2 C2          0.9139   -0.4342    0.6581 C.3       1 <0>         0.0549
      3 C3          1.7661   -1.0965    1.7425 C.3       1 <0>        -0.1792
      4 C4         -0.5387   -0.8936    0.7996 C.3       1 <0>        -0.1774
      5 N1          1.4218   -0.8172   -0.6660 N.4       1 <0>        -0.4977
      6 C5          2.8164   -0.3762   -0.8018 C.3       1 <0>        -0.0495
      7 C6          3.3455   -0.7751   -2.1809 C.3       1 <0>         0.0888
      8 C7          4.7980   -0.3157   -2.3224 C.3       1 <0>         0.0425
      9 O1          5.2553   -0.5837   -3.6494 O.3       1 <0>        -0.2178
     10 N2          6.5958   -0.1940   -3.8864 N.2       1 <0>        -0.3070
     11 C8          7.1282   -0.3832   -5.0498 C.2       1 <0>         0.1724
     12 C9          8.5133   -0.0486   -5.4834 C.ar      1 <0>        -0.0797
     13 C10         9.4234    0.8834   -4.9833 C.ar      1 <0>        -0.0700
     14 C11        10.6707    1.0090   -5.5574 C.ar      1 <0>        -0.1218
     15 C12        11.0228    0.2097   -6.6307 C.ar      1 <0>        -0.0871
     16 C13        10.1276   -0.7146   -7.1353 C.ar      1 <0>        -0.1062
     17 C14         8.8725   -0.8515   -6.5760 C.ar      1 <0>        -0.0544
     18 C15         7.7099   -1.7294   -6.9128 C.3       1 <0>        -0.0803
     19 C16         6.4885   -0.9972   -6.2669 C.3       1 <0>         0.1272
     20 C17         5.5080   -2.1331   -5.9649 C.3       1 <0>        -0.1109
     21 C18         4.3185   -1.9871   -6.9225 C.3       1 <0>        -0.1008
     22 C19         4.8385   -1.9700   -8.3964 C.3       1 <0>        -0.1208
     23 C20         6.1070   -2.7813   -8.5302 C.3       1 <0>        -0.1159
     24 C21         7.3626   -1.9364   -8.3411 C.3       1 <0>        -0.1116
     25 O2          5.9279   -0.0092   -7.1338 O.3       1 <0>        -0.3327
     26 C22         6.8490    1.0110   -7.5248 C.3       1 <0>         0.0106
     27 O3          3.2790   -2.1953   -2.3240 O.3       1 <0>        -0.5446
     28 H1          2.0199    1.4137    0.7106 H         1 <0>         0.0815
     29 H2          0.3779    1.5583    0.0389 H         1 <0>         0.0836
     30 H3          0.6081    1.3706    1.7939 H         1 <0>         0.1071
     31 H4          1.3892   -0.8123    2.7250 H         1 <0>         0.1071
     32 H5          1.7154   -2.1799    1.6333 H         1 <0>         0.0833
     33 H6          2.8009   -0.7693    1.6417 H         1 <0>         0.0810
     34 H7         -1.1459   -0.4218    0.0271 H         1 <0>         0.0832
     35 H8         -0.5894   -1.9769    0.6904 H         1 <0>         0.0832
     36 H9         -0.9156   -0.6094    1.7821 H         1 <0>         0.1075
     37 H10         1.3749   -1.8201   -0.7670 H         1 <0>         0.4313
     38 H11         2.8672    0.7072   -0.6926 H         1 <0>         0.1478
     39 H12         3.4236   -0.8480   -0.0293 H         1 <0>         0.1413
     40 H13         2.7383   -0.3032   -2.9534 H         1 <0>         0.1331
     41 H14         4.8614    0.7545   -2.1254 H         1 <0>         0.0759
     42 H15         5.4206   -0.8542   -1.6078 H         1 <0>         0.0713
     43 H16         9.1503    1.5076   -4.1453 H         1 <0>         0.1272
     44 H17        11.3731    1.7318   -5.1694 H         1 <0>         0.1344
     45 H18        12.0015    0.3089   -7.0765 H         1 <0>         0.1346
     46 H19        10.4116   -1.3340   -7.9732 H         1 <0>         0.1314
     47 H20         7.8297   -2.6960   -6.4235 H         1 <0>         0.0994
     48 H21         5.9956   -3.0947   -6.1250 H         1 <0>         0.0823
     49 H22         5.1634   -2.0596   -4.9334 H         1 <0>         0.0871
     50 H23         3.6373   -2.8273   -6.7870 H         1 <0>         0.0562
     51 H24         3.7937   -1.0554   -6.7111 H         1 <0>         0.0647
     52 H25         4.0743   -2.3892   -9.0509 H         1 <0>         0.0554
     53 H26         5.0385   -0.9406   -8.6939 H         1 <0>         0.0809
     54 H27         6.0966   -3.5760   -7.7842 H         1 <0>         0.0628
     55 H28         6.1328   -3.2329   -9.5219 H         1 <0>         0.0648
     56 H29         7.2165   -0.9637   -8.8108 H         1 <0>         0.0749
     57 H30         8.1940   -2.4398   -8.8345 H         1 <0>         0.0649
     58 H31         6.3685    1.6802   -8.2385 H         1 <0>         0.0905
     59 H32         7.1579    1.5777   -6.6465 H         1 <0>         0.0434
     60 H33         7.7232    0.5532   -7.9878 H         1 <0>         0.0583
     61 H34         3.7972   -2.6815   -1.6681 H         1 <0>         0.3890
     62 H35         0.8598   -0.3805   -1.3811 H         1 <0>         0.4285
@<TRIPOS>BOND
     1    1    2 1
     2    1   28 1
     3    1   29 1
     4    1   30 1
     5    2    3 1
     6    2    4 1
     7    2    5 1
     8    3   31 1
     9    3   32 1
    10    3   33 1
    11    4   34 1
    12    4   35 1
    13    4   36 1
    14    5    6 1
    15    5   37 1
    16    5   62 1
    17    6    7 1
    18    6   38 1
    19    6   39 1
    20    7    8 1
    21    7   27 1
    22    7   40 1
    23    8    9 1
    24    8   41 1
    25    8   42 1
    26    9   10 1
    27   10   11 2
    28   11   19 1
    29   11   12 1
    30   12   17 ar
    31   12   13 ar
    32   13   14 ar
    33   13   43 1
    34   14   15 ar
    35   14   44 1
    36   15   16 ar
    37   15   45 1
    38   16   17 ar
    39   16   46 1
    40   17   18 1
    41   18   24 1
    42   18   19 1
    43   18   47 1
    44   19   20 1
    45   19   25 1
    46   20   21 1
    47   20   48 1
    48   20   49 1
    49   21   22 1
    50   21   50 1
    51   21   51 1
    52   22   23 1
    53   22   52 1
    54   22   53 1
    55   23   24 1
    56   23   54 1
    57   23   55 1
    58   24   56 1
    59   24   57 1
    60   25   26 1
    61   26   58 1
    62   26   59 1
    63   26   60 1
    64   27   61 1
@<TRIPOS>MOLECULE
CHEMBL160788
   63    64     0     0     0
SMALL
USER_CHARGES

@<TRIPOS>ATOM
      1 C1         -0.0187    1.5258    0.0104 C.3       1 <0>        -0.1851
      2 C2          0.0021   -0.0041    0.0020 C.3       1 <0>         0.0258
      3 C3         -1.4333   -0.5336    0.0129 C.3       1 <0>        -0.1479
      4 C4         -1.4157   -2.0577   -0.1212 C.3       1 <0>        -0.1347
      5 C5         -2.8510   -2.5872   -0.1103 C.3       1 <0>        -0.1181
      6 C6         -2.8334   -4.1113   -0.2444 C.3       1 <0>        -0.1340
      7 C7         -4.2688   -4.6408   -0.2336 C.3       1 <0>         0.1348
      8 N1         -4.2519   -6.1001   -0.3620 N.am      1 <0>        -0.7132
      9 C8         -5.4103   -6.7888   -0.3761 C.2       1 <0>         0.6465
     10 O1         -6.4687   -6.1994   -0.2823 O.2       1 <0>        -0.5669
     11 O2         -5.3948   -8.1299   -0.4940 O.3       1 <0>        -0.3594
     12 C9         -6.6595   -8.7952   -0.5019 C.3       1 <0>         0.1294
     13 C10        -6.4449  -10.2804   -0.6404 C.ar      1 <0>        -0.1041
     14 C11        -6.3884  -10.8564   -1.8957 C.ar      1 <0>        -0.0937
     15 C12        -6.1916  -12.2188   -2.0228 C.ar      1 <0>        -0.1225
     16 C13        -6.0509  -13.0050   -0.8946 C.ar      1 <0>        -0.1051
     17 C14        -6.1066  -12.4288    0.3607 C.ar      1 <0>        -0.1226
     18 C15        -6.2991  -11.0658    0.4877 C.ar      1 <0>        -0.0939
     19 N2          0.7126   -0.4907    1.1921 N.4       1 <0>        -0.5058
     20 C16         2.1220   -0.0825    1.1220 C.3       1 <0>        -0.0465
     21 C17         2.8620   -0.5894    2.3616 C.3       1 <0>         0.1376
     22 C18         4.2758   -0.0677    2.3509 C.ar      1 <0>        -0.1364
     23 C19         5.2318   -0.6825    1.5638 C.ar      1 <0>        -0.0989
     24 C20         6.5301   -0.2078    1.5505 C.ar      1 <0>        -0.1234
     25 C21         6.8755    0.8868    2.3268 C.ar      1 <0>         0.1048
     26 C22         5.9132    1.5058    3.1187 C.ar      1 <0>         0.0902
     27 C23         4.6125    1.0279    3.1237 C.ar      1 <0>        -0.1130
     28 O3          6.2473    2.5803    3.8823 O.3       1 <0>        -0.4823
     29 O4          8.1524    1.3547    2.3152 O.3       1 <0>        -0.4834
     30 O5          2.8814   -2.0182    2.3537 O.3       1 <0>        -0.5454
     31 H1          1.0039    1.9031    0.0027 H         1 <0>         0.0809
     32 H2         -0.5459    1.8868   -0.8726 H         1 <0>         0.1077
     33 H3         -0.5289    1.8773    0.9072 H         1 <0>         0.0835
     34 H4          0.5123   -0.3556   -0.8948 H         1 <0>         0.1396
     35 H5         -1.9156   -0.2570    0.9504 H         1 <0>         0.0912
     36 H6         -1.9862   -0.1019   -0.8214 H         1 <0>         0.1151
     37 H7         -0.9334   -2.3344   -1.0587 H         1 <0>         0.0803
     38 H8         -0.8628   -2.4894    0.7131 H         1 <0>         0.0598
     39 H9         -3.3333   -2.3105    0.8272 H         1 <0>         0.0740
     40 H10        -3.4039   -2.1555   -0.9446 H         1 <0>         0.0774
     41 H11        -2.3511   -4.3879   -1.1819 H         1 <0>         0.0752
     42 H12        -2.2805   -4.5430    0.5898 H         1 <0>         0.0735
     43 H13        -4.7511   -4.3641    0.7040 H         1 <0>         0.0725
     44 H14        -4.8217   -4.2091   -1.0678 H         1 <0>         0.0732
     45 H15        -3.4070   -6.5706   -0.4368 H         1 <0>         0.4077
     46 H16        -7.1841   -8.5893    0.4312 H         1 <0>         0.0793
     47 H17        -7.2547   -8.4342   -1.3406 H         1 <0>         0.0795
     48 H18        -6.4983  -10.2421   -2.7772 H         1 <0>         0.1246
     49 H19        -6.1482  -12.6689   -3.0036 H         1 <0>         0.1275
     50 H20        -5.8979  -14.0695   -0.9938 H         1 <0>         0.1269
     51 H21        -5.9970  -13.0431    1.2422 H         1 <0>         0.1274
     52 H22        -6.3388  -10.6151    1.4684 H         1 <0>         0.1244
     53 H23         0.2896   -0.0986    2.0201 H         1 <0>         0.4269
     54 H24         2.5788   -0.5061    0.2276 H         1 <0>         0.1375
     55 H25         2.1837    1.0050    1.0814 H         1 <0>         0.1460
     56 H26         2.3518   -0.2378    3.2583 H         1 <0>         0.1318
     57 H27         4.9639   -1.5357    0.9582 H         1 <0>         0.1304
     58 H28         7.2752   -0.6902    0.9353 H         1 <0>         0.1434
     59 H29         3.8628    1.5088    3.7345 H         1 <0>         0.1390
     60 H30         6.1400    3.4303    3.4338 H         1 <0>         0.3946
     61 H31         8.3180    2.0292    1.6424 H         1 <0>         0.3972
     62 H32         3.3210   -2.4014    1.5823 H         1 <0>         0.3889
     63 H33         0.6554   -1.4974    1.2298 H         1 <0>         0.4302
@<TRIPOS>BOND
     1    1    2 1
     2    1   31 1
     3    1   32 1
     4    1   33 1
     5    2    3 1
     6    2   19 1
     7    2   34 1
     8    3    4 1
     9    3   35 1
    10    3   36 1
    11    4    5 1
    12    4   37 1
    13    4   38 1
    14    5    6 1
    15    5   39 1
    16    5   40 1
    17    6    7 1
    18    6   41 1
    19    6   42 1
    20    7    8 1
    21    7   43 1
    22    7   44 1
    23    8    9 am
    24    8   45 1
    25    9   10 2
    26    9   11 1
    27   11   12 1
    28   12   13 1
    29   12   46 1
    30   12   47 1
    31   13   18 ar
    32   13   14 ar
    33   14   15 ar
    34   14   48 1
    35   15   16 ar
    36   15   49 1
    37   16   17 ar
    38   16   50 1
    39   17   18 ar
    40   17   51 1
    41   18   52 1
    42   19   20 1
    43   19   53 1
    44   19   63 1
    45   20   21 1
    46   20   54 1
    47   20   55 1
    48   21   22 1
    49   21   30 1
    50   21   56 1
    51   22   27 ar
    52   22   23 ar
    53   23   24 ar
    54   23   57 1
    55   24   25 ar
    56   24   58 1
    57   25   26 ar
    58   25   29 1
    59   26   27 ar
    60   26   28 1
    61   27   59 1
    62   28   60 1
    63   29   61 1
    64   30   62 1
@<TRIPOS>MOLECULE
CHEMBL160788__1
   63    64     0     0     0
SMALL
USER_CHARGES

@<TRIPOS>ATOM
      1 C1         -0.0187    1.5258    0.0104 C.3       1 <0>        -0.1852
      2 C2          0.0021   -0.0041    0.0020 C.3       1 <0>         0.0254
      3 C3         -1.4333   -0.5336    0.0129 C.3       1 <0>        -0.1475
      4 C4         -1.4157   -2.0577   -0.1212 C.3       1 <0>        -0.1345
      5 C5         -2.8510   -2.5872   -0.1103 C.3       1 <0>        -0.1182
      6 C6         -2.8334   -4.1113   -0.2444 C.3       1 <0>        -0.1340
      7 C7         -4.2688   -4.6408   -0.2336 C.3       1 <0>         0.1348
      8 N1         -4.2519   -6.1001   -0.3620 N.am      1 <0>        -0.7132
      9 C8         -5.4103   -6.7888   -0.3761 C.2       1 <0>         0.6465
     10 O1         -6.4687   -6.1994   -0.2823 O.2       1 <0>        -0.5667
     11 O2         -5.3948   -8.1299   -0.4940 O.3       1 <0>        -0.3594
     12 C9         -6.6595   -8.7952   -0.5019 C.3       1 <0>         0.1293
     13 C10        -6.4449  -10.2804   -0.6404 C.ar      1 <0>        -0.1041
     14 C11        -6.3884  -10.8564   -1.8957 C.ar      1 <0>        -0.0937
     15 C12        -6.1916  -12.2188   -2.0228 C.ar      1 <0>        -0.1224
     16 C13        -6.0509  -13.0050   -0.8946 C.ar      1 <0>        -0.1051
     17 C14        -6.1066  -12.4288    0.3607 C.ar      1 <0>        -0.1227
     18 C15        -6.2991  -11.0658    0.4877 C.ar      1 <0>        -0.0940
     19 N2          0.7126   -0.4907    1.1921 N.4       1 <0>        -0.5047
     20 C16         2.1220   -0.0825    1.1220 C.3       1 <0>        -0.0476
     21 C17         2.8620   -0.5894    2.3616 C.3       1 <0>         0.1381
     22 C18         4.3078   -0.1706    2.2896 C.ar      1 <0>        -0.1368
     23 C19         4.6874    1.0791    2.7430 C.ar      1 <0>        -0.0979
     24 C20         6.0124    1.4679    2.6792 C.ar      1 <0>        -0.1233
     25 C21         6.9637    0.6042    2.1604 C.ar      1 <0>         0.1047
     26 C22         6.5818   -0.6539    1.7045 C.ar      1 <0>         0.0899
     27 C23         5.2526   -1.0392    1.7757 C.ar      1 <0>        -0.1136
     28 O3          7.5116   -1.5051    1.1944 O.3       1 <0>        -0.4846
     29 O4          8.2676    0.9853    2.0965 O.3       1 <0>        -0.4850
     30 O5          2.2630   -0.0341    3.5341 O.3       1 <0>        -0.5465
     31 H1          1.0039    1.9031    0.0027 H         1 <0>         0.0809
     32 H2         -0.5459    1.8868   -0.8726 H         1 <0>         0.1079
     33 H3         -0.5289    1.8773    0.9072 H         1 <0>         0.0833
     34 H4          0.5123   -0.3556   -0.8948 H         1 <0>         0.1403
     35 H5         -1.9156   -0.2570    0.9504 H         1 <0>         0.0912
     36 H6         -1.9862   -0.1019   -0.8214 H         1 <0>         0.1152
     37 H7         -0.9334   -2.3344   -1.0587 H         1 <0>         0.0808
     38 H8         -0.8628   -2.4894    0.7131 H         1 <0>         0.0586
     39 H9         -3.3333   -2.3105    0.8272 H         1 <0>         0.0741
     40 H10        -3.4039   -2.1555   -0.9446 H         1 <0>         0.0777
     41 H11        -2.3511   -4.3879   -1.1819 H         1 <0>         0.0753
     42 H12        -2.2805   -4.5430    0.5898 H         1 <0>         0.0730
     43 H13        -4.7511   -4.3641    0.7040 H         1 <0>         0.0726
     44 H14        -4.8217   -4.2091   -1.0678 H         1 <0>         0.0734
     45 H15        -3.4070   -6.5706   -0.4368 H         1 <0>         0.4077
     46 H16        -7.1841   -8.5893    0.4312 H         1 <0>         0.0793
     47 H17        -7.2547   -8.4342   -1.3406 H         1 <0>         0.0795
     48 H18        -6.4983  -10.2421   -2.7772 H         1 <0>         0.1246
     49 H19        -6.1482  -12.6689   -3.0036 H         1 <0>         0.1275
     50 H20        -5.8979  -14.0695   -0.9938 H         1 <0>         0.1269
     51 H21        -5.9970  -13.0431    1.2422 H         1 <0>         0.1274
     52 H22        -6.3388  -10.6151    1.4684 H         1 <0>         0.1244
     53 H23         0.2896   -0.0986    2.0201 H         1 <0>         0.4296
     54 H24         2.5788   -0.5061    0.2276 H         1 <0>         0.1452
     55 H25         2.1837    1.0050    1.0814 H         1 <0>         0.1397
     56 H26         2.8002   -1.6769    2.4022 H         1 <0>         0.1323
     57 H27         3.9469    1.7532    3.1476 H         1 <0>         0.1306
     58 H28         6.3062    2.4450    3.0334 H         1 <0>         0.1434
     59 H29         4.9542   -2.0164    1.4260 H         1 <0>         0.1385
     60 H30         7.9173   -2.0851    1.8533 H         1 <0>         0.3969
     61 H31         8.7817    0.7620    2.8845 H         1 <0>         0.3989
     62 H32         2.2821    0.9322    3.5656 H         1 <0>         0.3888
     63 H33         0.6554   -1.4974    1.2298 H         1 <0>         0.4265
@<TRIPOS>BOND
     1    1    2 1
     2    1   31 1
     3    1   32 1
     4    1   33 1
     5    2    3 1
     6    2   19 1
     7    2   34 1
     8    3    4 1
     9    3   35 1
    10    3   36 1
    11    4    5 1
    12    4   37 1
    13    4   38 1
    14    5    6 1
    15    5   39 1
    16    5   40 1
    17    6    7 1
    18    6   41 1
    19    6   42 1
    20    7    8 1
    21    7   43 1
    22    7   44 1
    23    8    9 am
    24    8   45 1
    25    9   10 2
    26    9   11 1
    27   11   12 1
    28   12   13 1
    29   12   46 1
    30   12   47 1
    31   13   18 ar
    32   13   14 ar
    33   14   15 ar
    34   14   48 1
    35   15   16 ar
    36   15   49 1
    37   16   17 ar
    38   16   50 1
    39   17   18 ar
    40   17   51 1
    41   18   52 1
    42   19   20 1
    43   19   53 1
    44   19   63 1
    45   20   21 1
    46   20   54 1
    47   20   55 1
    48   21   22 1
    49   21   30 1
    50   21   56 1
    51   22   27 ar
    52   22   23 ar
    53   23   24 ar
    54   23   57 1
    55   24   25 ar
    56   24   58 1
    57   25   26 ar
    58   25   29 1
    59   26   27 ar
    60   26   28 1
    61   27   59 1
    62   28   60 1
    63   29   61 1
    64   30   62 1
@<TRIPOS>MOLECULE
CHEMBL160788__2
   63    64     0     0     0
SMALL
USER_CHARGES

@<TRIPOS>ATOM
      1 C1         -0.0187    1.5258    0.0104 C.3       1 <0>        -0.1850
      2 C2          0.0021   -0.0041    0.0020 C.3       1 <0>         0.0257
      3 C3          0.7421   -0.5109    1.2415 C.3       1 <0>        -0.1479
      4 C4          0.8719   -2.0337    1.1708 C.3       1 <0>        -0.1344
      5 C5          1.6119   -2.5406    2.4104 C.3       1 <0>        -0.1183
      6 C6          1.7418   -4.0634    2.3397 C.3       1 <0>        -0.1340
      7 C7          2.4818   -4.5703    3.5792 C.3       1 <0>         0.1347
      8 N1          2.6061   -6.0284    3.5115 N.am      1 <0>        -0.7133
      9 C8          3.2271   -6.6985    4.5024 C.2       1 <0>         0.6465
     10 O1          3.6838   -6.0932    5.4519 O.2       1 <0>        -0.5667
     11 O2          3.3414   -8.0386    4.4402 O.3       1 <0>        -0.3593
     12 C9          4.0114   -8.6836    5.5251 C.3       1 <0>         0.1294
     13 C10         4.0428  -10.1707    5.2832 C.ar      1 <0>        -0.1042
     14 C11         3.0112  -10.9677    5.7428 C.ar      1 <0>        -0.0939
     15 C12         3.0400  -12.3318    5.5209 C.ar      1 <0>        -0.1226
     16 C13         4.1003  -12.8989    4.8389 C.ar      1 <0>        -0.1051
     17 C14         5.1315  -12.1017    4.3785 C.ar      1 <0>        -0.1225
     18 C15         5.1006  -10.7371    4.5967 C.ar      1 <0>        -0.0938
     19 N2         -1.3761   -0.5125    0.0124 N.4       1 <0>        -0.5056
     20 C16        -2.0500   -0.1262   -1.2343 C.3       1 <0>        -0.0467
     21 C17        -3.4854   -0.6557   -1.2235 C.3       1 <0>         0.1377
     22 C18        -4.1376   -0.3665   -2.5509 C.ar      1 <0>        -0.1363
     23 C19        -4.6356    0.8960   -2.8142 C.ar      1 <0>        -0.0989
     24 C20        -5.2348    1.1663   -4.0303 C.ar      1 <0>        -0.1233
     25 C21        -5.3368    0.1709   -4.9888 C.ar      1 <0>         0.1048
     26 C22        -4.8351   -1.0998   -4.7240 C.ar      1 <0>         0.0902
     27 C23        -4.2314   -1.3627   -3.5048 C.ar      1 <0>        -0.1130
     28 O3         -4.9328   -2.0800   -5.6616 O.3       1 <0>        -0.4824
     29 O4         -5.9263    0.4350   -6.1856 O.3       1 <0>        -0.4834
     30 O5         -4.2221   -0.0137   -0.1809 O.3       1 <0>        -0.5450
     31 H1          1.0039    1.9031    0.0027 H         1 <0>         0.1078
     32 H2         -0.5459    1.8868   -0.8726 H         1 <0>         0.0805
     33 H3         -0.5289    1.8773    0.9072 H         1 <0>         0.0837
     34 H4          0.5123   -0.3556   -0.8948 H         1 <0>         0.1399
     35 H5          1.7350   -0.0630    1.2804 H         1 <0>         0.1152
     36 H6          0.1838   -0.2350    2.1361 H         1 <0>         0.0914
     37 H7         -0.1210   -2.4817    1.1320 H         1 <0>         0.0586
     38 H8          1.4302   -2.3096    0.2763 H         1 <0>         0.0806
     39 H9          2.6049   -2.0927    2.4492 H         1 <0>         0.0776
     40 H10         1.0536   -2.2647    3.3050 H         1 <0>         0.0742
     41 H11         0.7488   -4.5113    2.3008 H         1 <0>         0.0731
     42 H12         2.3001   -4.3393    1.4451 H         1 <0>         0.0752
     43 H13         3.4748   -4.1223    3.6180 H         1 <0>         0.0733
     44 H14         1.9235   -4.2944    4.4738 H         1 <0>         0.0726
     45 H15         2.2416   -6.5116    2.7535 H         1 <0>         0.4077
     46 H16         5.0312   -8.3058    5.5985 H         1 <0>         0.0795
     47 H17         3.4799   -8.4778    6.4542 H         1 <0>         0.0794
     48 H18         2.1828  -10.5247    6.2757 H         1 <0>         0.1244
     49 H19         2.2343  -12.9546    5.8807 H         1 <0>         0.1274
     50 H20         4.1232  -13.9647    4.6662 H         1 <0>         0.1269
     51 H21         5.9601  -12.5448    3.8460 H         1 <0>         0.1275
     52 H22         5.9044  -10.1138    4.2337 H         1 <0>         0.1246
     53 H23        -1.3629   -1.5185    0.0898 H         1 <0>         0.4265
     54 H24        -2.0643    0.9605   -1.3179 H         1 <0>         0.1394
     55 H25        -1.5132   -0.5489   -2.0836 H         1 <0>         0.1442
     56 H26        -3.4743   -1.7319   -1.0509 H         1 <0>         0.1311
     57 H27        -4.5568    1.6727   -2.0679 H         1 <0>         0.1304
     58 H28        -5.6237    2.1532   -4.2332 H         1 <0>         0.1435
     59 H29        -3.8378   -2.3470   -3.2982 H         1 <0>         0.1388
     60 H30        -4.1784   -2.1238   -6.2650 H         1 <0>         0.3946
     61 H31        -5.3143    0.7514   -6.8642 H         1 <0>         0.3972
     62 H32        -4.2734    0.9478   -0.2701 H         1 <0>         0.3890
     63 H33        -1.8730   -0.1212    0.7986 H         1 <0>         0.4305
@<TRIPOS>BOND
     1    1    2 1
     2    1   31 1
     3    1   32 1
     4    1   33 1
     5    2    3 1
     6    2   19 1
     7    2   34 1
     8    3    4 1
     9    3   35 1
    10    3   36 1
    11    4    5 1
    12    4   37 1
    13    4   38 1
    14    5    6 1
    15    5   39 1
    16    5   40 1
    17    6    7 1
    18    6   41 1
    19    6   42 1
    20    7    8 1
    21    7   43 1
    22    7   44 1
    23    8    9 am
    24    8   45 1
    25    9   10 2
    26    9   11 1
    27   11   12 1
    28   12   13 1
    29   12   46 1
    30   12   47 1
    31   13   18 ar
    32   13   14 ar
    33   14   15 ar
    34   14   48 1
    35   15   16 ar
    36   15   49 1
    37   16   17 ar
    38   16   50 1
    39   17   18 ar
    40   17   51 1
    41   18   52 1
    42   19   20 1
    43   19   53 1
    44   19   63 1
    45   20   21 1
    46   20   54 1
    47   20   55 1
    48   21   22 1
    49   21   30 1
    50   21   56 1
    51   22   27 ar
    52   22   23 ar
    53   23   24 ar
    54   23   57 1
    55   24   25 ar
    56   24   58 1
    57   25   26 ar
    58   25   29 1
    59   26   27 ar
    60   26   28 1
    61   27   59 1
    62   28   60 1
    63   29   61 1
    64   30   62 1
@<TRIPOS>MOLECULE
CHEMBL160788__3
   63    64     0     0     0
SMALL
USER_CHARGES

@<TRIPOS>ATOM
      1 C1         -0.0187    1.5258    0.0104 C.3       1 <0>        -0.1857
      2 C2          0.0021   -0.0041    0.0020 C.3       1 <0>         0.0257
      3 C3          0.7421   -0.5109    1.2415 C.3       1 <0>        -0.1476
      4 C4          0.8719   -2.0337    1.1708 C.3       1 <0>        -0.1346
      5 C5          1.6119   -2.5406    2.4104 C.3       1 <0>        -0.1181
      6 C6          1.7418   -4.0634    2.3397 C.3       1 <0>        -0.1339
      7 C7          2.4818   -4.5703    3.5792 C.3       1 <0>         0.1347
      8 N1          2.6061   -6.0284    3.5115 N.am      1 <0>        -0.7131
      9 C8          3.2271   -6.6985    4.5024 C.2       1 <0>         0.6464
     10 O1          3.6838   -6.0932    5.4519 O.2       1 <0>        -0.5668
     11 O2          3.3414   -8.0386    4.4402 O.3       1 <0>        -0.3594
     12 C9          4.0114   -8.6836    5.5251 C.3       1 <0>         0.1293
     13 C10         4.0428  -10.1707    5.2832 C.ar      1 <0>        -0.1041
     14 C11         3.0112  -10.9677    5.7428 C.ar      1 <0>        -0.0939
     15 C12         3.0400  -12.3318    5.5209 C.ar      1 <0>        -0.1227
     16 C13         4.1003  -12.8989    4.8389 C.ar      1 <0>        -0.1051
     17 C14         5.1315  -12.1017    4.3785 C.ar      1 <0>        -0.1225
     18 C15         5.1006  -10.7371    4.5967 C.ar      1 <0>        -0.0938
     19 N2         -1.3761   -0.5125    0.0124 N.4       1 <0>        -0.5048
     20 C16        -2.0500   -0.1262   -1.2343 C.3       1 <0>        -0.0475
     21 C17        -3.4854   -0.6557   -1.2235 C.3       1 <0>         0.1380
     22 C18        -4.1768   -0.2594   -2.5025 C.ar      1 <0>        -0.1367
     23 C19        -4.0413   -1.0452   -3.6319 C.ar      1 <0>        -0.0978
     24 C20        -4.6735   -0.6859   -4.8076 C.ar      1 <0>        -0.1234
     25 C21        -5.4454    0.4639   -4.8558 C.ar      1 <0>         0.1047
     26 C22        -5.5821    1.2546   -3.7189 C.ar      1 <0>         0.0900
     27 C23        -4.9497    0.8861   -2.5423 C.ar      1 <0>        -0.1136
     28 O3         -6.3386    2.3839   -3.7612 O.3       1 <0>        -0.4846
     29 O4         -6.0676    0.8190   -6.0117 O.3       1 <0>        -0.4850
     30 O5         -3.4667   -2.0804   -1.1139 O.3       1 <0>        -0.5469
     31 H1          1.0039    1.9031    0.0027 H         1 <0>         0.1079
     32 H2         -0.5459    1.8868   -0.8726 H         1 <0>         0.0817
     33 H3         -0.5289    1.8773    0.9072 H         1 <0>         0.0835
     34 H4          0.5123   -0.3556   -0.8948 H         1 <0>         0.1397
     35 H5          1.7350   -0.0630    1.2804 H         1 <0>         0.1152
     36 H6          0.1838   -0.2350    2.1361 H         1 <0>         0.0911
     37 H7         -0.1210   -2.4817    1.1320 H         1 <0>         0.0596
     38 H8          1.4302   -2.3096    0.2763 H         1 <0>         0.0803
     39 H9          2.6049   -2.0927    2.4492 H         1 <0>         0.0774
     40 H10         1.0536   -2.2647    3.3050 H         1 <0>         0.0740
     41 H11         0.7488   -4.5113    2.3008 H         1 <0>         0.0733
     42 H12         2.3001   -4.3393    1.4451 H         1 <0>         0.0752
     43 H13         3.4748   -4.1223    3.6180 H         1 <0>         0.0733
     44 H14         1.9235   -4.2944    4.4738 H         1 <0>         0.0725
     45 H15         2.2416   -6.5116    2.7535 H         1 <0>         0.4077
     46 H16         5.0312   -8.3058    5.5985 H         1 <0>         0.0795
     47 H17         3.4799   -8.4778    6.4542 H         1 <0>         0.0793
     48 H18         2.1828  -10.5247    6.2757 H         1 <0>         0.1244
     49 H19         2.2343  -12.9546    5.8807 H         1 <0>         0.1274
     50 H20         4.1232  -13.9647    4.6662 H         1 <0>         0.1269
     51 H21         5.9601  -12.5448    3.8460 H         1 <0>         0.1275
     52 H22         5.9044  -10.1138    4.2337 H         1 <0>         0.1246
     53 H23        -1.3629   -1.5185    0.0898 H         1 <0>         0.4293
     54 H24        -2.0643    0.9605   -1.3179 H         1 <0>         0.1470
     55 H25        -1.5132   -0.5489   -2.0836 H         1 <0>         0.1377
     56 H26        -4.0222   -0.2330   -0.3742 H         1 <0>         0.1330
     57 H27        -3.4399   -1.9415   -3.5957 H         1 <0>         0.1305
     58 H28        -4.5655   -1.3011   -5.6887 H         1 <0>         0.1433
     59 H29        -5.0572    1.4960   -1.6576 H         1 <0>         0.1387
     60 H30        -7.2680    2.2434   -3.5341 H         1 <0>         0.3970
     61 H31        -6.9582    0.4546   -6.1070 H         1 <0>         0.3989
     62 H32        -3.0042   -2.5245   -1.8377 H         1 <0>         0.3885
     63 H33        -1.8730   -0.1212    0.7986 H         1 <0>         0.4269
@<TRIPOS>BOND
     1    1    2 1
     2    1   31 1
     3    1   32 1
     4    1   33 1
     5    2    3 1
     6    2   19 1
     7    2   34 1
     8    3    4 1
     9    3   35 1
    10    3   36 1
    11    4    5 1
    12    4   37 1
    13    4   38 1
    14    5    6 1
    15    5   39 1
    16    5   40 1
    17    6    7 1
    18    6   41 1
    19    6   42 1
    20    7    8 1
    21    7   43 1
    22    7   44 1
    23    8    9 am
    24    8   45 1
    25    9   10 2
    26    9   11 1
    27   11   12 1
    28   12   13 1
    29   12   46 1
    30   12   47 1
    31   13   18 ar
    32   13   14 ar
    33   14   15 ar
    34   14   48 1
    35   15   16 ar
    36   15   49 1
    37   16   17 ar
    38   16   50 1
    39   17   18 ar
    40   17   51 1
    41   18   52 1
    42   19   20 1
    43   19   53 1
    44   19   63 1
    45   20   21 1
    46   20   54 1
    47   20   55 1
    48   21   22 1
    49   21   30 1
    50   21   56 1
    51   22   27 ar
    52   22   23 ar
    53   23   24 ar
    54   23   57 1
    55   24   25 ar
    56   24   58 1
    57   25   26 ar
    58   25   29 1
    59   26   27 ar
    60   26   28 1
    61   27   59 1
    62   28   60 1
    63   29   61 1
    64   30   62 1
@<TRIPOS>MOLECULE
CHEMBL13079
   61    63     0     0     0
SMALL
USER_CHARGES

@<TRIPOS>ATOM
      1 C1          3.1946    1.6509    6.6240 C.ar      1 <0>        -0.1039
      2 C2          3.2800    0.2748    6.7229 C.ar      1 <0>        -0.1137
      3 C3          4.0697   -0.4342    5.8372 C.ar      1 <0>        -0.1048
      4 C4          4.7737    0.2329    4.8522 C.ar      1 <0>        -0.1020
      5 C5          4.6876    1.6090    4.7527 C.ar      1 <0>        -0.1029
      6 C6          3.8990    2.3181    5.6393 C.ar      1 <0>        -0.1173
      7 C7          5.6354   -0.5399    3.8871 C.3       1 <0>        -0.5745
      8 S1          4.6492   -1.0105    2.4392 S.o2      1 <0>         2.5985
      9 O1          3.7330   -2.0403    2.7847 O.2       1 <0>        -0.9368
     10 O2          4.2074    0.1507    1.7495 O.2       1 <0>        -0.9383
     11 N1          5.7254   -1.7312    1.4073 N.pl3     1 <0>        -1.0716
     12 C8          6.7816   -0.9910    0.8712 C.ar      1 <0>         0.1394
     13 C9          6.5435   -0.0721   -0.1430 C.ar      1 <0>        -0.0981
     14 C10         7.5902    0.6584   -0.6704 C.ar      1 <0>        -0.0977
     15 C11         8.8741    0.4757   -0.1904 C.ar      1 <0>        -0.1018
     16 C12         9.1146   -0.4382    0.8192 C.ar      1 <0>        -0.1009
     17 C13         8.0717   -1.1679    1.3551 C.ar      1 <0>        -0.1157
     18 C14        10.0138    1.2739   -0.7691 C.3       1 <0>        -0.1027
     19 C15        10.1779    2.5744    0.0200 C.3       1 <0>        -0.0083
     20 N2         11.2889    3.3526   -0.5441 N.4       1 <0>        -0.5038
     21 C16        11.4464    4.6012    0.2135 C.3       1 <0>        -0.0420
     22 C17        12.6036    5.4117   -0.3741 C.3       1 <0>         0.0855
     23 H1         12.3913    5.6441   -1.4176 H         1 <0>         0.1366
     24 C18        12.7677    6.7122    0.4150 C.3       1 <0>         0.0288
     25 O3         13.7698    7.5215   -0.2037 O.3       1 <0>        -0.3011
     26 C19        14.0402    8.7209    0.3772 C.ar      1 <0>         0.1085
     27 C20        13.3584    9.1064    1.5219 C.ar      1 <0>        -0.1913
     28 C21        13.6330   10.3248    2.1120 C.ar      1 <0>        -0.1062
     29 C22        14.5909   11.1624    1.5601 C.ar      1 <0>         0.0807
     30 C23        15.2733   10.7765    0.4160 C.ar      1 <0>        -0.1026
     31 C24        15.0018    9.5562   -0.1717 C.ar      1 <0>        -0.1258
     32 O4         14.8606   12.3622    2.1405 O.3       1 <0>        -0.4957
     33 O5         13.8093    4.6491   -0.2917 O.3       1 <0>        -0.5433
     34 H2          2.5741    2.2044    7.3132 H         1 <0>         0.1312
     35 H3          2.7299   -0.2464    7.4925 H         1 <0>         0.1333
     36 H4          4.1369   -1.5093    5.9149 H         1 <0>         0.1320
     37 H5          5.2379    2.1303    3.9834 H         1 <0>         0.1260
     38 H6          3.8321    3.3933    5.5618 H         1 <0>         0.1304
     39 H7          6.4729    0.0815    3.5699 H         1 <0>         0.1371
     40 H8          6.0137   -1.4374    4.3764 H         1 <0>         0.1446
     41 H9          5.6222   -2.6673    1.1751 H         1 <0>         0.4305
     42 H10         5.5412    0.0706   -0.5188 H         1 <0>         0.1441
     43 H11         7.4057    1.3730   -1.4590 H         1 <0>         0.1338
     44 H12        10.1185   -0.5785    1.1918 H         1 <0>         0.1324
     45 H13         8.2595   -1.8783    2.1466 H         1 <0>         0.1378
     46 H14        10.9335    0.6923   -0.7062 H         1 <0>         0.0995
     47 H15         9.8015    1.5064   -1.8126 H         1 <0>         0.1000
     48 H16         9.2582    3.1561   -0.0429 H         1 <0>         0.1363
     49 H17        10.3902    2.3420    1.0635 H         1 <0>         0.1347
     50 H18        12.1402    2.8142   -0.4859 H         1 <0>         0.4337
     51 H19        10.5267    5.1829    0.1506 H         1 <0>         0.1479
     52 H20        11.6587    4.3688    1.2570 H         1 <0>         0.1400
     53 H21        11.8208    7.2520    0.4267 H         1 <0>         0.0822
     54 H22        13.0670    6.4816    1.4374 H         1 <0>         0.0767
     55 H23        12.6125    8.4542    1.9516 H         1 <0>         0.1284
     56 H24        13.1016   10.6253    3.0029 H         1 <0>         0.1353
     57 H25        16.0190   11.4288   -0.0139 H         1 <0>         0.1419
     58 H26        15.5358    9.2541   -1.0604 H         1 <0>         0.1388
     59 H27        15.5597   12.3280    2.8078 H         1 <0>         0.3941
     60 H28        14.0601    4.4061    0.6101 H         1 <0>         0.3900
     61 H29        11.0924    3.5678   -1.5101 H         1 <0>         0.4319
@<TRIPOS>BOND
     1    1    6 ar
     2    1    2 ar
     3    1   34 1
     4    2    3 ar
     5    2   35 1
     6    3    4 ar
     7    3   36 1
     8    4    5 ar
     9    4    7 1
    10    5    6 ar
    11    5   37 1
    12    6   38 1
    13    7    8 1
    14    7   39 1
    15    7   40 1
    16    8    9 2
    17    8   10 2
    18    8   11 1
    19   11   12 1
    20   11   41 1
    21   12   17 ar
    22   12   13 ar
    23   13   14 ar
    24   13   42 1
    25   14   15 ar
    26   14   43 1
    27   15   16 ar
    28   15   18 1
    29   16   17 ar
    30   16   44 1
    31   17   45 1
    32   18   19 1
    33   18   46 1
    34   18   47 1
    35   19   20 1
    36   19   48 1
    37   19   49 1
    38   20   21 1
    39   20   50 1
    40   20   61 1
    41   21   22 1
    42   21   51 1
    43   21   52 1
    44   22   23 1
    45   22   24 1
    46   22   33 1
    47   24   25 1
    48   24   53 1
    49   24   54 1
    50   25   26 1
    51   26   31 ar
    52   26   27 ar
    53   27   28 ar
    54   27   55 1
    55   28   29 ar
    56   28   56 1
    57   29   30 ar
    58   29   32 1
    59   30   31 ar
    60   30   57 1
    61   31   58 1
    62   32   59 1
    63   33   60 1
@<TRIPOS>MOLECULE
CHEMBL37235
   43    45     0     0     0
SMALL
USER_CHARGES

@<TRIPOS>ATOM
      1 C1         -0.0167    1.3780    0.0096 C.ar      1 <0>        -0.1221
      2 C2          1.1706    2.0866    0.0021 C.ar      1 <0>        -0.0521
      3 C3          2.3773    1.4137   -0.0131 C.ar      1 <0>        -0.1465
      4 C4          2.3974    0.0291   -0.0207 C.ar      1 <0>         0.1201
      5 C5          1.2080   -0.6793   -0.0132 C.ar      1 <0>        -0.2023
      6 C6          0.0021   -0.0041    0.0020 C.ar      1 <0>        -0.0602
      7 C7          1.2281   -2.1862   -0.0220 C.3       1 <0>         0.0483
      8 N1          1.4884   -2.6804    1.3367 N.4       1 <0>        -0.5042
      9 C8          1.5080   -4.1492    1.3281 C.3       1 <0>        -0.0423
     10 C9          1.7791   -4.6639    2.7432 C.3       1 <0>         0.0860
     11 C10         1.9233   -6.1868    2.7131 C.3       1 <0>         0.0298
     12 O1          2.2913   -6.6562    4.0116 O.3       1 <0>        -0.2970
     13 C11         2.4609   -7.9964    4.1579 C.ar      1 <0>         0.1686
     14 C12         2.2844   -8.8416    3.0793 C.ar      1 <0>        -0.2422
     15 C13         2.4576  -10.2104    3.2264 C.ar      1 <0>        -0.0617
     16 C14         2.8068  -10.7485    4.4455 C.ar      1 <0>        -0.1567
     17 C15         2.9903   -9.9175    5.5468 C.ar      1 <0>         0.1320
     18 C16         2.8216   -8.5296    5.4014 C.ar      1 <0>        -0.1321
     19 C17         3.0889   -7.9477    6.7189 C.2       1 <0>        -0.1882
     20 C18         3.3938   -8.9632    7.5416 C.2       1 <0>         0.0490
     21 N2          3.3317  -10.1496    6.8604 N.pl3     1 <0>        -0.5918
     22 H1          3.5117  -11.0223    7.2436 H         1 <0>         0.4218
     23 O2          0.6909   -4.3053    3.5971 O.3       1 <0>        -0.5423
     24 F1          3.5766   -0.6299   -0.0360 F         1 <0>        -0.1327
     25 H2         -0.9594    1.9048    0.0260 H         1 <0>         0.1456
     26 H3          1.1547    3.1665    0.0077 H         1 <0>         0.1483
     27 H4          3.3046    1.9675   -0.0193 H         1 <0>         0.1503
     28 H5         -0.9259   -0.5565    0.0083 H         1 <0>         0.1446
     29 H6          0.2640   -2.5604   -0.3662 H         1 <0>         0.1458
     30 H7          2.0136   -2.5351   -0.6922 H         1 <0>         0.1412
     31 H8          2.3809   -2.3340    1.6554 H         1 <0>         0.4297
     32 H9          0.5438   -4.5234    0.9839 H         1 <0>         0.1424
     33 H10         2.2935   -4.4982    0.6578 H         1 <0>         0.1478
     34 H11         2.6995   -4.2192    3.1215 H         1 <0>         0.1345
     35 H12         0.9745   -6.6359    2.4197 H         1 <0>         0.0775
     36 H13         2.6944   -6.4646    1.9944 H         1 <0>         0.0819
     37 H14         2.0099   -8.4350    2.1172 H         1 <0>         0.1241
     38 H15         2.3168  -10.8610    2.3760 H         1 <0>         0.1313
     39 H16         2.9379  -11.8157    4.5468 H         1 <0>         0.1260
     40 H17         3.0489   -6.9002    6.9787 H         1 <0>         0.1484
     41 H18         3.6420   -8.8609    8.5877 H         1 <0>         0.1756
     42 H19        -0.1621   -4.6673    3.3204 H         1 <0>         0.3899
     43 H20         0.7612   -2.3573    1.9572 H         1 <0>         0.4341
@<TRIPOS>BOND
     1    1    6 ar
     2    1    2 ar
     3    1   25 1
     4    2    3 ar
     5    2   26 1
     6    3    4 ar
     7    3   27 1
     8    4    5 ar
     9    4   24 1
    10    5    6 ar
    11    5    7 1
    12    6   28 1
    13    7    8 1
    14    7   29 1
    15    7   30 1
    16    8    9 1
    17    8   31 1
    18    8   43 1
    19    9   10 1
    20    9   32 1
    21    9   33 1
    22   10   11 1
    23   10   23 1
    24   10   34 1
    25   11   12 1
    26   11   35 1
    27   11   36 1
    28   12   13 1
    29   13   18 ar
    30   13   14 ar
    31   14   15 ar
    32   14   37 1
    33   15   16 ar
    34   15   38 1
    35   16   17 ar
    36   16   39 1
    37   17   21 1
    38   17   18 ar
    39   18   19 1
    40   19   20 2
    41   19   40 1
    42   20   21 1
    43   20   41 1
    44   21   22 1
    45   23   42 1
@<TRIPOS>MOLECULE
CHEMBL37235__1
   43    45     0     0     0
SMALL
USER_CHARGES

@<TRIPOS>ATOM
      1 C1         -0.0167    1.3780    0.0096 C.ar      1 <0>        -0.1224
      2 C2          1.1706    2.0866    0.0021 C.ar      1 <0>        -0.0521
      3 C3          2.3773    1.4137   -0.0131 C.ar      1 <0>        -0.1465
      4 C4          2.3974    0.0291   -0.0207 C.ar      1 <0>         0.1208
      5 C5          1.2080   -0.6793   -0.0132 C.ar      1 <0>        -0.2026
      6 C6          0.0021   -0.0041    0.0020 C.ar      1 <0>        -0.0606
      7 C7          1.2281   -2.1862   -0.0220 C.3       1 <0>         0.0483
      8 N1          1.4884   -2.6804    1.3367 N.4       1 <0>        -0.5038
      9 C8          1.5080   -4.1492    1.3281 C.3       1 <0>        -0.0428
     10 C9          1.7791   -4.6639    2.7432 C.3       1 <0>         0.0859
     11 C10         1.7995   -6.1938    2.7343 C.3       1 <0>         0.0297
     12 O1          1.9364   -6.6761    4.0724 O.3       1 <0>        -0.2970
     13 C11         1.9716   -8.0239    4.2417 C.ar      1 <0>         0.1686
     14 C12         1.8828   -8.8646    3.1489 C.ar      1 <0>        -0.2421
     15 C13         1.9190  -10.2411    3.3196 C.ar      1 <0>        -0.0617
     16 C14         2.0432  -10.7914    4.5763 C.ar      1 <0>        -0.1567
     17 C15         2.1343   -9.9651    5.6926 C.ar      1 <0>         0.1319
     18 C16         2.1039   -8.5698    5.5242 C.ar      1 <0>        -0.1321
     19 C17         2.2260   -7.9961    6.8665 C.2       1 <0>        -0.1883
     20 C18         2.3240   -9.0233    7.7247 C.2       1 <0>         0.0490
     21 N2          2.2626  -10.2086    7.0417 N.pl3     1 <0>        -0.5917
     22 H1          2.3125  -11.0885    7.4469 H         1 <0>         0.4218
     23 O2          3.0431   -4.1733    3.1945 O.3       1 <0>        -0.5433
     24 F1          3.5766   -0.6299   -0.0360 F         1 <0>        -0.1325
     25 H2         -0.9594    1.9048    0.0260 H         1 <0>         0.1456
     26 H3          1.1547    3.1665    0.0077 H         1 <0>         0.1483
     27 H4          3.3046    1.9675   -0.0193 H         1 <0>         0.1504
     28 H5         -0.9259   -0.5565    0.0083 H         1 <0>         0.1448
     29 H6          0.2640   -2.5604   -0.3662 H         1 <0>         0.1463
     30 H7          2.0136   -2.5351   -0.6922 H         1 <0>         0.1405
     31 H8          2.3809   -2.3340    1.6554 H         1 <0>         0.4327
     32 H9          0.5438   -4.5234    0.9839 H         1 <0>         0.1491
     33 H10         2.2935   -4.4982    0.6578 H         1 <0>         0.1409
     34 H11         0.9936   -4.3149    3.4135 H         1 <0>         0.1356
     35 H12         0.8689   -6.5670    2.3069 H         1 <0>         0.0821
     36 H13         2.6403   -6.5424    2.1346 H         1 <0>         0.0772
     37 H14         1.7844   -8.4484    2.1572 H         1 <0>         0.1241
     38 H15         1.8488  -10.8882    2.4577 H         1 <0>         0.1312
     39 H16         2.0694  -11.8645    4.6955 H         1 <0>         0.1259
     40 H17         2.2359   -6.9458    7.1178 H         1 <0>         0.1484
     41 H18         2.4266   -8.9291    8.7957 H         1 <0>         0.1756
     42 H19         3.7900   -4.4455    2.6439 H         1 <0>         0.3903
     43 H20         0.7612   -2.3573    1.9572 H         1 <0>         0.4310
@<TRIPOS>BOND
     1    1    6 ar
     2    1    2 ar
     3    1   25 1
     4    2    3 ar
     5    2   26 1
     6    3    4 ar
     7    3   27 1
     8    4    5 ar
     9    4   24 1
    10    5    6 ar
    11    5    7 1
    12    6   28 1
    13    7    8 1
    14    7   29 1
    15    7   30 1
    16    8    9 1
    17    8   31 1
    18    8   43 1
    19    9   10 1
    20    9   32 1
    21    9   33 1
    22   10   11 1
    23   10   23 1
    24   10   34 1
    25   11   12 1
    26   11   35 1
    27   11   36 1
    28   12   13 1
    29   13   18 ar
    30   13   14 ar
    31   14   15 ar
    32   14   37 1
    33   15   16 ar
    34   15   38 1
    35   16   17 ar
    36   16   39 1
    37   17   21 1
    38   17   18 ar
    39   18   19 1
    40   19   20 2
    41   19   40 1
    42   20   21 1
    43   20   41 1
    44   21   22 1
    45   23   42 1
@<TRIPOS>MOLECULE
CHEMBL492005
   57    59     0     0     0
SMALL
USER_CHARGES

@<TRIPOS>ATOM
      1 C1          1.3154  -10.6822   -7.4392 C.3       1 <0>        -0.1688
      2 C2          1.2909   -9.8488   -6.1838 C.2       1 <0>         0.5072
      3 O1          2.3157   -9.6541   -5.5651 O.2       1 <0>        -0.5505
      4 N1          0.1301   -9.3198   -5.7487 N.am      1 <0>        -0.6450
      5 C3          0.0902   -8.6259   -4.5413 C.ar      1 <0>         0.1854
      6 C4          1.1709   -7.8473   -4.1492 C.ar      1 <0>        -0.1272
      7 C5          1.1322   -7.1603   -2.9535 C.ar      1 <0>        -0.1029
      8 C6          0.0131   -7.2405   -2.1319 C.ar      1 <0>         0.0312
      9 C7         -1.0717   -8.0105   -2.5069 C.ar      1 <0>        -0.0769
     10 C8         -1.0452   -8.7068   -3.7195 C.ar      1 <0>        -0.1555
     11 C9         -2.1982   -9.5244   -4.1288 C.2       1 <0>         0.5281
     12 O2         -3.1483   -9.6649   -3.3709 O.co2     1 <0>        -0.6782
     13 O3         -2.2067  -10.0636   -5.2270 O.co2     1 <0>        -0.6790
     14 O4         -0.0138   -6.5595   -0.9555 O.3       1 <0>        -0.2488
     15 C10         0.1574   -7.2643    0.1936 C.ar      1 <0>         0.1392
     16 C11         0.0236   -6.6333    1.4225 C.ar      1 <0>        -0.1381
     17 C12         0.1982   -7.3519    2.5889 C.ar      1 <0>        -0.0797
     18 C13         0.5065   -8.6989    2.5332 C.ar      1 <0>        -0.1514
     19 C14         0.6403   -9.3299    1.3103 C.ar      1 <0>        -0.0704
     20 C15         0.4606   -8.6171    0.1405 C.ar      1 <0>        -0.1813
     21 C16         0.9768  -10.7977    1.2534 C.3       1 <0>        -0.0991
     22 C17        -0.3152  -11.6172    1.2468 C.3       1 <0>        -0.0096
     23 N2          0.0128  -13.0481    1.1913 N.4       1 <0>        -0.5034
     24 C18        -1.2277  -13.8349    1.1850 C.3       1 <0>        -0.0452
     25 C19        -0.8860  -15.3252    1.1272 C.3       1 <0>         0.1426
     26 H1         -0.2890  -15.5951    1.9982 H         1 <0>         0.1320
     27 C20        -2.1586  -16.1324    1.1207 C.ar      1 <0>        -0.1976
     28 C21        -2.6785  -16.6331    2.3048 C.ar      1 <0>        -0.0560
     29 C22        -3.8513  -17.3702    2.2508 C.ar      1 <0>        -0.1677
     30 C23        -4.4593  -17.5801    1.0273 C.ar      1 <0>         0.1201
     31 N3         -3.9360  -17.0889   -0.0789 N.ar      1 <0>        -0.4734
     32 C24        -2.8252  -16.3781   -0.0645 C.ar      1 <0>         0.1209
     33 O5         -0.1430  -15.5977   -0.0626 O.3       1 <0>        -0.5483
     34 H2          1.1452  -11.7282   -7.1843 H         1 <0>         0.0951
     35 H3          0.5326  -10.3413   -8.1169 H         1 <0>         0.0840
     36 H4          2.2860  -10.5797   -7.9245 H         1 <0>         0.0924
     37 H5         -0.6774   -9.4223   -6.2761 H         1 <0>         0.4305
     38 H6          2.0438   -7.7797   -4.7815 H         1 <0>         0.1444
     39 H7          1.9762   -6.5569   -2.6535 H         1 <0>         0.1285
     40 H8         -1.9396   -8.0710   -1.8669 H         1 <0>         0.1355
     41 H9         -0.2164   -5.5813    1.4666 H         1 <0>         0.1364
     42 H10         0.0942   -6.8614    3.5455 H         1 <0>         0.1335
     43 H11         0.6433   -9.2589    3.4465 H         1 <0>         0.1229
     44 H12         0.5605   -9.1115   -0.8144 H         1 <0>         0.1340
     45 H13         1.5435  -11.0056    0.3458 H         1 <0>         0.0965
     46 H14         1.5738  -11.0676    2.1245 H         1 <0>         0.0959
     47 H15        -0.8820  -11.4093    2.1544 H         1 <0>         0.1347
     48 H16        -0.9123  -11.3473    0.3758 H         1 <0>         0.1390
     49 H17         0.5375  -13.2405    0.3512 H         1 <0>         0.4335
     50 H18        -1.7944  -13.6270    2.0925 H         1 <0>         0.1441
     51 H19        -1.8247  -13.5650    0.3139 H         1 <0>         0.1414
     52 H20        -2.1812  -16.4534    3.2465 H         1 <0>         0.1397
     53 H21        -4.2843  -17.7757    3.1533 H         1 <0>         0.1448
     54 H22        -5.3732  -18.1532    0.9767 H         1 <0>         0.1652
     55 H23        -2.4294  -15.9876   -0.9904 H         1 <0>         0.1557
     56 H24        -0.6141  -15.3811   -0.8789 H         1 <0>         0.3936
     57 H25         0.5655  -13.2979    1.9976 H         1 <0>         0.4258
@<TRIPOS>BOND
     1    1    2 1
     2    1   34 1
     3    1   35 1
     4    1   36 1
     5    2    3 2
     6    2    4 am
     7    4    5 1
     8    4   37 1
     9    5   10 ar
    10    5    6 ar
    11    6    7 ar
    12    6   38 1
    13    7    8 ar
    14    7   39 1
    15    8    9 ar
    16    8   14 1
    17    9   10 ar
    18    9   40 1
    19   10   11 1
    20   11   12 2
    21   11   13 1
    22   14   15 1
    23   15   20 ar
    24   15   16 ar
    25   16   17 ar
    26   16   41 1
    27   17   18 ar
    28   17   42 1
    29   18   19 ar
    30   18   43 1
    31   19   20 ar
    32   19   21 1
    33   20   44 1
    34   21   22 1
    35   21   45 1
    36   21   46 1
    37   22   23 1
    38   22   47 1
    39   22   48 1
    40   23   24 1
    41   23   49 1
    42   23   57 1
    43   24   25 1
    44   24   50 1
    45   24   51 1
    46   25   26 1
    47   25   27 1
    48   25   33 1
    49   27   32 ar
    50   27   28 ar
    51   28   29 ar
    52   28   52 1
    53   29   30 ar
    54   29   53 1
    55   30   31 ar
    56   30   54 1
    57   31   32 ar
    58   32   55 1
    59   33   56 1
@<TRIPOS>MOLECULE
CHEMBL36060
   42    43     0     0     0
SMALL
USER_CHARGES

@<TRIPOS>ATOM
      1 C1         -0.0187    1.5258    0.0104 C.3       1 <0>        -0.1797
      2 C2          0.0021   -0.0041    0.0020 C.3       1 <0>         0.0548
      3 C3          0.7421   -0.5109    1.2415 C.3       1 <0>        -0.1792
      4 C4         -1.4333   -0.5336    0.0129 C.3       1 <0>        -0.1780
      5 N1          0.6897   -0.4778   -1.2066 N.4       1 <0>        -0.4978
      6 C5          2.0678    0.0307   -1.2170 C.3       1 <0>        -0.0514
      7 C6          2.7840   -0.4628   -2.4758 C.3       1 <0>         0.0866
      8 H1          2.2568   -0.1017   -3.3589 H         1 <0>         0.1350
      9 C7          4.2193    0.0668   -2.4867 C.3       1 <0>         0.0314
     10 O1          4.8516   -0.2959   -3.7158 O.3       1 <0>        -0.3032
     11 C8          6.1408    0.1009   -3.8874 C.ar      1 <0>         0.1361
     12 C9          6.7857    0.8186   -2.8929 C.ar      1 <0>        -0.2015
     13 C10         8.0979    1.2230   -3.0653 C.ar      1 <0>        -0.0663
     14 C11         8.7752    0.9156   -4.2291 C.ar      1 <0>        -0.1312
     15 C12         8.1393    0.1974   -5.2316 C.ar      1 <0>         0.1330
     16 C13         6.8186   -0.2170   -5.0592 C.ar      1 <0>         0.0648
     17 N2          6.4598   -0.9119   -6.2142 N.am      1 <0>        -0.6348
     18 C14         7.5178   -0.9230   -7.0470 C.2       1 <0>         0.6837
     19 N3          8.5431   -0.2550   -6.4856 N.am      1 <0>        -0.6389
     20 H2          9.4177   -0.1201   -6.8828 H         1 <0>         0.4417
     21 O2          7.5406   -1.4485   -8.1444 O.2       1 <0>        -0.5436
     22 O3          2.8033   -1.8916   -2.4837 O.3       1 <0>        -0.5435
     23 H3          1.0039    1.9031    0.0027 H         1 <0>         0.0814
     24 H4         -0.5459    1.8868   -0.8726 H         1 <0>         0.0838
     25 H5         -0.5289    1.8773    0.9072 H         1 <0>         0.1075
     26 H6          0.2319   -0.1594    2.1383 H         1 <0>         0.1075
     27 H7          0.7568   -1.6008    1.2356 H         1 <0>         0.0835
     28 H8          1.7647   -0.1336    1.2338 H         1 <0>         0.0809
     29 H9         -1.9605   -0.1726   -0.8702 H         1 <0>         0.0834
     30 H10        -1.4185   -1.6235    0.0069 H         1 <0>         0.0834
     31 H11        -1.9435   -0.1821    0.9097 H         1 <0>         0.1079
     32 H12         0.7033   -1.4867   -1.2121 H         1 <0>         0.4318
     33 H13         2.0530    1.1205   -1.2110 H         1 <0>         0.1488
     34 H14         2.5950   -0.3304   -0.3340 H         1 <0>         0.1420
     35 H15         4.2068    1.1525   -2.3912 H         1 <0>         0.0849
     36 H16         4.7722   -0.3649   -1.6524 H         1 <0>         0.0800
     37 H17         6.2625    1.0634   -1.9803 H         1 <0>         0.1355
     38 H18         8.5947    1.7821   -2.2862 H         1 <0>         0.1418
     39 H19         9.7989    1.2343   -4.3588 H         1 <0>         0.1402
     40 H20         3.2576   -2.2830   -1.7250 H         1 <0>         0.3901
     41 H21         0.2017   -0.1436   -2.0240 H         1 <0>         0.4290
     42 H22         5.5960   -1.3177   -6.3877 H         1 <0>         0.4384
@<TRIPOS>BOND
     1    1    2 1
     2    1   23 1
     3    1   24 1
     4    1   25 1
     5    2    3 1
     6    2    4 1
     7    2    5 1
     8    3   26 1
     9    3   27 1
    10    3   28 1
    11    4   29 1
    12    4   30 1
    13    4   31 1
    14    5    6 1
    15    5   32 1
    16    5   41 1
    17    6    7 1
    18    6   33 1
    19    6   34 1
    20    7    8 1
    21    7    9 1
    22    7   22 1
    23    9   10 1
    24    9   35 1
    25    9   36 1
    26   10   11 1
    27   11   16 ar
    28   11   12 ar
    29   12   13 ar
    30   12   37 1
    31   13   14 ar
    32   13   38 1
    33   14   15 ar
    34   14   39 1
    35   15   19 1
    36   15   16 ar
    37   16   17 1
    38   17   18 am
    39   17   42 1
    40   18   19 am
    41   18   21 2
    42   19   20 1
    43   22   40 1
@<TRIPOS>MOLECULE
CHEMBL1221680
   52    55     0     0     0
SMALL
USER_CHARGES

@<TRIPOS>ATOM
      1 C1         -0.0167    1.3781    0.0096 C.ar      1 <0>        -0.1061
      2 C2          1.1709    2.0855    0.0021 C.ar      1 <0>        -0.1212
      3 C3          2.3773    1.4107   -0.0130 C.ar      1 <0>        -0.0975
      4 C4          2.3960    0.0285   -0.0201 C.ar      1 <0>        -0.1040
      5 C5          1.2084   -0.6789   -0.0117 C.ar      1 <0>        -0.0962
      6 C6          0.0021   -0.0041    0.0020 C.ar      1 <0>        -0.1218
      7 C7          3.7112   -0.7071   -0.0376 C.3       1 <0>         0.1048
      8 O1          4.1410   -0.9464    1.3041 O.3       1 <0>        -0.3640
      9 C8          5.3853   -1.6423    1.4004 C.3       1 <0>         0.0715
     10 H1          6.0071   -1.4166    0.5341 H         1 <0>         0.0814
     11 C9          5.1353   -3.1620    1.4899 C.3       1 <0>        -0.1477
     12 C10         6.2177   -3.6676    2.4758 C.3       1 <0>        -0.1323
     13 C11         6.2838   -2.5293    3.5241 C.3       1 <0>        -0.1386
     14 C12         6.1161   -1.2391    2.6931 C.3       1 <0>         0.0165
     15 H2          5.5216   -0.5125    3.2470 H         1 <0>         0.1531
     16 N1          7.4325   -0.6722    2.3711 N.4       1 <0>        -0.4998
     17 C13         8.0689   -0.1824    3.6012 C.3       1 <0>        -0.0476
     18 C14         9.4400    0.4080    3.2658 C.3       1 <0>         0.1636
     19 H3          9.3183    1.2345    2.5658 H         1 <0>         0.1156
     20 C15        10.0929    0.9104    4.5277 C.ar      1 <0>        -0.2339
     21 C16        10.9827    0.1055    5.2179 C.ar      1 <0>        -0.0376
     22 C17        11.5709    0.5876    6.3742 C.ar      1 <0>        -0.2398
     23 C18        11.2859    1.8512    6.8474 C.ar      1 <0>         0.3006
     24 C19        10.3841    2.6906    6.1643 C.ar      1 <0>        -0.0288
     25 C20         9.8117    2.1721    4.9952 C.ar      1 <0>        -0.0472
     26 S1          8.7686    3.4959    4.4334 S.3       1 <0>        -0.1190
     27 C21         9.1290    4.6617    5.7366 C.2       1 <0>         0.5378
     28 O2          8.6938    5.7876    5.8940 O.2       1 <0>        -0.4757
     29 N2          9.9954    3.9765    6.5085 N.am      1 <0>        -0.6198
     30 H4         10.3601    4.3913    7.3060 H         1 <0>         0.4155
     31 O3         11.8821    2.2920    7.9872 O.3       1 <0>        -0.6862
     32 O4         10.2611   -0.6007    2.6738 O.3       1 <0>        -0.5546
     33 H5         -0.9591    1.9053    0.0259 H         1 <0>         0.1264
     34 H6          1.1563    3.1654    0.0076 H         1 <0>         0.1271
     35 H7          3.3051    1.9634   -0.0196 H         1 <0>         0.1226
     36 H8          1.2231   -1.7588   -0.0176 H         1 <0>         0.1230
     37 H9         -0.9258   -0.5567    0.0082 H         1 <0>         0.1266
     38 H10         3.5884   -1.6586   -0.5549 H         1 <0>         0.0664
     39 H11         4.4573   -0.1052   -0.5563 H         1 <0>         0.0634
     40 H12         4.1384   -3.3621    1.8825 H         1 <0>         0.0941
     41 H13         5.2621   -3.6276    0.5126 H         1 <0>         0.0862
     42 H14         5.9094   -4.6038    2.9410 H         1 <0>         0.0929
     43 H15         7.1766   -3.7835    1.9705 H         1 <0>         0.0772
     44 H16         5.4723   -2.6272    4.2452 H         1 <0>         0.1127
     45 H17         7.2486   -2.5332    4.0312 H         1 <0>         0.0938
     46 H18         8.0123   -1.3844    1.9531 H         1 <0>         0.4260
     47 H19         7.4426    0.5869    4.0528 H         1 <0>         0.1423
     48 H20         8.1907   -1.0090    4.3012 H         1 <0>         0.1380
     49 H21        11.2148   -0.8862    4.8589 H         1 <0>         0.1129
     50 H22        12.2655   -0.0372    6.9160 H         1 <0>         0.1174
     51 H23        10.4122   -1.3684    3.2420 H         1 <0>         0.3834
     52 H24         7.3198    0.0929    1.7231 H         1 <0>         0.4267
@<TRIPOS>BOND
     1    1    6 ar
     2    1    2 ar
     3    1   33 1
     4    2    3 ar
     5    2   34 1
     6    3    4 ar
     7    3   35 1
     8    4    5 ar
     9    4    7 1
    10    5    6 ar
    11    5   36 1
    12    6   37 1
    13    7    8 1
    14    7   38 1
    15    7   39 1
    16    8    9 1
    17    9   10 1
    18    9   14 1
    19    9   11 1
    20   11   12 1
    21   11   40 1
    22   11   41 1
    23   12   13 1
    24   12   42 1
    25   12   43 1
    26   13   14 1
    27   13   44 1
    28   13   45 1
    29   14   15 1
    30   14   16 1
    31   16   17 1
    32   16   46 1
    33   16   52 1
    34   17   18 1
    35   17   47 1
    36   17   48 1
    37   18   19 1
    38   18   20 1
    39   18   32 1
    40   20   25 ar
    41   20   21 ar
    42   21   22 ar
    43   21   49 1
    44   22   23 ar
    45   22   50 1
    46   23   24 ar
    47   23   31 1
    48   24   29 1
    49   24   25 ar
    50   25   26 1
    51   26   27 1
    52   27   28 2
    53   27   29 am
    54   29   30 1
    55   32   51 1
@<TRIPOS>MOLECULE
CHEMBL1221679
   44    46     0     0     0
SMALL
USER_CHARGES

@<TRIPOS>ATOM
      1 C1         -0.0167    1.3796    0.0096 C.ar      1 <0>        -0.0378
      2 C2          1.1829    2.0705    0.0019 C.ar      1 <0>        -0.2401
      3 C3          2.3903    1.4051   -0.0137 C.ar      1 <0>         0.3004
      4 C4          2.4377   -0.0032   -0.0217 C.ar      1 <0>        -0.0287
      5 C5          1.2054   -0.6693   -0.0130 C.ar      1 <0>        -0.0476
      6 C6          0.0021   -0.0041    0.0020 C.ar      1 <0>        -0.2335
      7 C7         -1.2907   -0.7785    0.0107 C.3       1 <0>         0.1636
      8 H1         -1.1640   -1.6905    0.5940 H         1 <0>         0.1152
      9 C8         -1.6778   -1.1407   -1.4245 C.3       1 <0>        -0.0492
     10 N1         -2.9380   -1.8956   -1.4160 N.4       1 <0>        -0.5027
     11 C9         -3.3097   -2.2434   -2.7940 C.3       1 <0>         0.0258
     12 C10        -2.3004   -3.2036   -3.3628 C.3       1 <0>        -0.1494
     13 C11        -2.0767   -2.9975   -4.8732 C.3       1 <0>        -0.1154
     14 C12        -3.3873   -2.7432   -5.6421 C.3       1 <0>        -0.1287
     15 C13        -4.5074   -3.6364   -5.1819 C.3       1 <0>        -0.1247
     16 C14        -5.3250   -2.8850   -4.1115 C.3       1 <0>        -0.1245
     17 C15        -4.6931   -2.9255   -2.8010 C.3       1 <0>        -0.1288
     18 O1         -2.3211    0.0211    0.5946 O.3       1 <0>        -0.5547
     19 S1          1.6714   -2.3835   -0.0263 S.3       1 <0>        -0.1201
     20 C16         3.4422   -2.1558   -0.0424 C.2       1 <0>         0.5379
     21 O2          4.3192   -2.9998   -0.0552 O.2       1 <0>        -0.4757
     22 N2          3.5628   -0.8137   -0.0368 N.am      1 <0>        -0.6196
     23 H2          4.4451   -0.4107   -0.0434 H         1 <0>         0.4155
     24 O3          3.5491    2.1163   -0.0218 O.3       1 <0>        -0.6863
     25 H3         -0.9553    1.9136    0.0259 H         1 <0>         0.1129
     26 H4          1.1728    3.1505    0.0078 H         1 <0>         0.1174
     27 H5         -1.8046   -0.2287   -2.0078 H         1 <0>         0.1357
     28 H6         -0.8919   -1.7507   -1.8699 H         1 <0>         0.1417
     29 H7         -2.8207   -2.7399   -0.8761 H         1 <0>         0.4243
     30 H8         -3.3438   -1.3401   -3.4031 H         1 <0>         0.1389
     31 H9         -1.3517   -3.0665   -2.8438 H         1 <0>         0.0870
     32 H10        -2.6486   -4.2225   -3.1937 H         1 <0>         0.0907
     33 H11        -1.4135   -2.1445   -5.0171 H         1 <0>         0.0719
     34 H12        -1.5962   -3.8865   -5.2818 H         1 <0>         0.0788
     35 H13        -3.6837   -1.7040   -5.4997 H         1 <0>         0.0627
     36 H14        -3.2123   -2.9157   -6.7040 H         1 <0>         0.0713
     37 H15        -5.1499   -3.8830   -6.0272 H         1 <0>         0.0731
     38 H16        -4.0949   -4.5498   -4.7533 H         1 <0>         0.0708
     39 H17        -5.4359   -1.8448   -4.4178 H         1 <0>         0.0707
     40 H18        -6.3141   -3.3375   -4.0406 H         1 <0>         0.0804
     41 H19        -4.5752   -3.9659   -2.4980 H         1 <0>         0.0877
     42 H20        -5.3389   -2.4214   -2.0820 H         1 <0>         0.0813
     43 H21        -2.4884    0.8504    0.1263 H         1 <0>         0.3835
     44 H22        -3.6655   -1.3310   -1.0037 H         1 <0>         0.4286
@<TRIPOS>BOND
     1    1    6 ar
     2    1    2 ar
     3    1   25 1
     4    2    3 ar
     5    2   26 1
     6    3    4 ar
     7    3   24 1
     8    4   22 1
     9    4    5 ar
    10    5    6 ar
    11    5   19 1
    12    6    7 1
    13    7    8 1
    14    7    9 1
    15    7   18 1
    16    9   10 1
    17    9   27 1
    18    9   28 1
    19   10   11 1
    20   10   29 1
    21   10   44 1
    22   11   17 1
    23   11   12 1
    24   11   30 1
    25   12   13 1
    26   12   31 1
    27   12   32 1
    28   13   14 1
    29   13   33 1
    30   13   34 1
    31   14   15 1
    32   14   35 1
    33   14   36 1
    34   15   16 1
    35   15   37 1
    36   15   38 1
    37   16   17 1
    38   16   39 1
    39   16   40 1
    40   17   41 1
    41   17   42 1
    42   18   43 1
    43   19   20 1
    44   20   21 2
    45   20   22 am
    46   22   23 1
@<TRIPOS>MOLECULE
CHEMBL345618
   60    61     0     0     0
SMALL
USER_CHARGES

@<TRIPOS>ATOM
      1 C1         -0.0187    1.5258    0.0104 C.3       1 <0>        -0.1850
      2 C2          0.0021   -0.0041    0.0020 C.3       1 <0>         0.0258
      3 C3          0.7182   -0.4975   -1.2568 C.3       1 <0>        -0.1463
      4 C4          0.8493   -2.0210   -1.2049 C.3       1 <0>        -0.1324
      5 C5          1.5654   -2.5144   -2.4637 C.3       1 <0>        -0.1343
      6 C6          1.6964   -4.0379   -2.4119 C.3       1 <0>         0.1355
      7 N1          2.3821   -4.5104   -3.6172 N.am      1 <0>        -0.7139
      8 C7          2.6104   -5.8273   -3.7902 C.2       1 <0>         0.6476
      9 O1          2.2475   -6.6228   -2.9464 O.2       1 <0>        -0.5676
     10 O2          3.2406   -6.2615   -4.8979 O.3       1 <0>        -0.3582
     11 C8          3.4493   -7.6703   -5.0155 C.3       1 <0>         0.1299
     12 C9          4.1633   -7.9661   -6.3092 C.ar      1 <0>        -0.1054
     13 C10         3.4367   -8.2058   -7.4606 C.ar      1 <0>        -0.0938
     14 C11         4.0917   -8.4771   -8.6473 C.ar      1 <0>        -0.1224
     15 C12         5.4732   -8.5083   -8.6828 C.ar      1 <0>        -0.1044
     16 C13         6.1998   -8.2677   -7.5317 C.ar      1 <0>        -0.1222
     17 C14         5.5449   -7.9921   -6.3459 C.ar      1 <0>        -0.0936
     18 N2         -1.3761   -0.5125    0.0124 N.4       1 <0>        -0.5062
     19 C15        -2.0260   -0.1396    1.2760 C.3       1 <0>        -0.0465
     20 C16        -3.4614   -0.6692    1.2868 C.3       1 <0>         0.1375
     21 C17        -4.1668   -0.1832    2.5267 C.ar      1 <0>        -0.1364
     22 C18        -3.9533   -0.8190    3.7357 C.ar      1 <0>        -0.0987
     23 C19        -4.5980   -0.3770    4.8759 C.ar      1 <0>        -0.1233
     24 C20        -5.4600    0.7058    4.8087 C.ar      1 <0>         0.1048
     25 C21        -5.6745    1.3460    3.5920 C.ar      1 <0>         0.0900
     26 C22        -5.0215    0.9009    2.4538 C.ar      1 <0>        -0.1130
     27 O3         -6.5196    2.4092    3.5210 O.3       1 <0>        -0.4824
     28 O4         -6.0953    1.1416    5.9294 O.3       1 <0>        -0.4834
     29 O5         -3.4420   -2.0981    1.2790 O.3       1 <0>        -0.5453
     30 H1          1.0039    1.9031    0.0027 H         1 <0>         0.1078
     31 H2         -0.5459    1.8868   -0.8726 H         1 <0>         0.0835
     32 H3         -0.5289    1.8773    0.9072 H         1 <0>         0.0814
     33 H4          0.5293   -0.3651    0.8851 H         1 <0>         0.1407
     34 H5          0.1430   -0.2121   -2.1375 H         1 <0>         0.0919
     35 H6          1.7103   -0.0491   -1.3098 H         1 <0>         0.1159
     36 H7          1.4245   -2.3064   -0.3242 H         1 <0>         0.0848
     37 H8         -0.1428   -2.4694   -1.1520 H         1 <0>         0.0638
     38 H9          0.9902   -2.2290   -3.3445 H         1 <0>         0.0791
     39 H10         2.5575   -2.0660   -2.5167 H         1 <0>         0.0825
     40 H11         2.2717   -4.3233   -1.5311 H         1 <0>         0.0733
     41 H12         0.7044   -4.4863   -2.3589 H         1 <0>         0.0717
     42 H13         2.6719   -3.8753   -4.2908 H         1 <0>         0.4094
     43 H14         4.0542   -8.0191   -4.1786 H         1 <0>         0.0796
     44 H15         2.4869   -8.1821   -5.0064 H         1 <0>         0.0795
     45 H16         2.3573   -8.1815   -7.4328 H         1 <0>         0.1243
     46 H17         3.5240   -8.6651   -9.5466 H         1 <0>         0.1277
     47 H18         5.9849   -8.7210   -9.6098 H         1 <0>         0.1272
     48 H19         7.2792   -8.2924   -7.5593 H         1 <0>         0.1278
     49 H20         6.1126   -7.8005   -5.4473 H         1 <0>         0.1245
     50 H21        -1.8879   -0.1129   -0.7598 H         1 <0>         0.4270
     51 H22        -1.4732   -0.5714    2.1102 H         1 <0>         0.1379
     52 H23        -2.0386    0.9461    1.3715 H         1 <0>         0.1460
     53 H24        -3.9886   -0.3081    0.4038 H         1 <0>         0.1317
     54 H25        -3.2817   -1.6631    3.7893 H         1 <0>         0.1306
     55 H26        -4.4301   -0.8758    5.8189 H         1 <0>         0.1435
     56 H27        -5.1833    1.3984    1.5089 H         1 <0>         0.1389
     57 H28        -6.0907    3.2631    3.6693 H         1 <0>         0.3945
     58 H29        -5.6059    1.8141    6.4227 H         1 <0>         0.3972
     59 H30        -2.9878   -2.4894    2.0376 H         1 <0>         0.3893
     60 H31        -1.3644   -1.5176   -0.0760 H         1 <0>         0.4306
@<TRIPOS>BOND
     1    1    2 1
     2    1   30 1
     3    1   31 1
     4    1   32 1
     5    2    3 1
     6    2   18 1
     7    2   33 1
     8    3    4 1
     9    3   34 1
    10    3   35 1
    11    4    5 1
    12    4   36 1
    13    4   37 1
    14    5    6 1
    15    5   38 1
    16    5   39 1
    17    6    7 1
    18    6   40 1
    19    6   41 1
    20    7    8 am
    21    7   42 1
    22    8    9 2
    23    8   10 1
    24   10   11 1
    25   11   12 1
    26   11   43 1
    27   11   44 1
    28   12   17 ar
    29   12   13 ar
    30   13   14 ar
    31   13   45 1
    32   14   15 ar
    33   14   46 1
    34   15   16 ar
    35   15   47 1
    36   16   17 ar
    37   16   48 1
    38   17   49 1
    39   18   19 1
    40   18   50 1
    41   18   60 1
    42   19   20 1
    43   19   51 1
    44   19   52 1
    45   20   21 1
    46   20   29 1
    47   20   53 1
    48   21   26 ar
    49   21   22 ar
    50   22   23 ar
    51   22   54 1
    52   23   24 ar
    53   23   55 1
    54   24   25 ar
    55   24   28 1
    56   25   26 ar
    57   25   27 1
    58   26   56 1
    59   27   57 1
    60   28   58 1
    61   29   59 1
@<TRIPOS>MOLECULE
CHEMBL345618__1
   60    61     0     0     0
SMALL
USER_CHARGES

@<TRIPOS>ATOM
      1 C1         -0.0187    1.5258    0.0104 C.3       1 <0>        -0.1850
      2 C2          0.0021   -0.0041    0.0020 C.3       1 <0>         0.0254
      3 C3          0.7182   -0.4975   -1.2568 C.3       1 <0>        -0.1460
      4 C4          0.8493   -2.0210   -1.2049 C.3       1 <0>        -0.1321
      5 C5          1.5654   -2.5144   -2.4637 C.3       1 <0>        -0.1344
      6 C6          1.6964   -4.0379   -2.4119 C.3       1 <0>         0.1355
      7 N1          2.3821   -4.5104   -3.6172 N.am      1 <0>        -0.7138
      8 C7          2.6104   -5.8273   -3.7902 C.2       1 <0>         0.6477
      9 O1          2.2475   -6.6228   -2.9464 O.2       1 <0>        -0.5679
     10 O2          3.2406   -6.2615   -4.8979 O.3       1 <0>        -0.3581
     11 C8          3.4493   -7.6703   -5.0155 C.3       1 <0>         0.1299
     12 C9          4.1633   -7.9661   -6.3092 C.ar      1 <0>        -0.1054
     13 C10         3.4367   -8.2058   -7.4606 C.ar      1 <0>        -0.0938
     14 C11         4.0917   -8.4771   -8.6473 C.ar      1 <0>        -0.1224
     15 C12         5.4732   -8.5083   -8.6828 C.ar      1 <0>        -0.1043
     16 C13         6.1998   -8.2677   -7.5317 C.ar      1 <0>        -0.1222
     17 C14         5.5449   -7.9921   -6.3459 C.ar      1 <0>        -0.0936
     18 N2         -1.3761   -0.5125    0.0124 N.4       1 <0>        -0.5051
     19 C15        -2.0260   -0.1396    1.2760 C.3       1 <0>        -0.0475
     20 C16        -3.4614   -0.6692    1.2868 C.3       1 <0>         0.1378
     21 C17        -4.1282   -0.2867    2.5830 C.ar      1 <0>        -0.1367
     22 C18        -4.7300    0.9515    2.7099 C.ar      1 <0>        -0.0980
     23 C19        -5.3429    1.3072    3.8969 C.ar      1 <0>        -0.1235
     24 C20        -5.3555    0.4217    4.9626 C.ar      1 <0>         0.1047
     25 C21        -4.7502   -0.8248    4.8347 C.ar      1 <0>         0.0901
     26 C22        -4.1418   -1.1768    3.6406 C.ar      1 <0>        -0.1135
     27 O3         -4.7600   -1.6973    5.8778 O.3       1 <0>        -0.4846
     28 O4         -5.9577    0.7701    6.1311 O.3       1 <0>        -0.4851
     29 O5         -4.1863   -0.1032    0.1931 O.3       1 <0>        -0.5464
     30 H1          1.0039    1.9031    0.0027 H         1 <0>         0.1080
     31 H2         -0.5459    1.8868   -0.8726 H         1 <0>         0.0833
     32 H3         -0.5289    1.8773    0.9072 H         1 <0>         0.0814
     33 H4          0.5293   -0.3651    0.8851 H         1 <0>         0.1414
     34 H5          0.1430   -0.2121   -2.1375 H         1 <0>         0.0919
     35 H6          1.7103   -0.0491   -1.3098 H         1 <0>         0.1160
     36 H7          1.4245   -2.3064   -0.3242 H         1 <0>         0.0853
     37 H8         -0.1428   -2.4694   -1.1520 H         1 <0>         0.0626
     38 H9          0.9902   -2.2290   -3.3445 H         1 <0>         0.0792
     39 H10         2.5575   -2.0660   -2.5167 H         1 <0>         0.0828
     40 H11         2.2717   -4.3233   -1.5311 H         1 <0>         0.0735
     41 H12         0.7044   -4.4863   -2.3589 H         1 <0>         0.0712
     42 H13         2.6719   -3.8753   -4.2908 H         1 <0>         0.4095
     43 H14         4.0542   -8.0191   -4.1786 H         1 <0>         0.0796
     44 H15         2.4869   -8.1821   -5.0064 H         1 <0>         0.0794
     45 H16         2.3573   -8.1815   -7.4328 H         1 <0>         0.1242
     46 H17         3.5240   -8.6651   -9.5466 H         1 <0>         0.1277
     47 H18         5.9849   -8.7210   -9.6098 H         1 <0>         0.1273
     48 H19         7.2792   -8.2924   -7.5593 H         1 <0>         0.1279
     49 H20         6.1126   -7.8005   -5.4473 H         1 <0>         0.1246
     50 H21        -1.8879   -0.1129   -0.7598 H         1 <0>         0.4296
     51 H22        -1.4732   -0.5714    2.1102 H         1 <0>         0.1457
     52 H23        -2.0386    0.9461    1.3715 H         1 <0>         0.1397
     53 H24        -3.4489   -1.7549    1.1913 H         1 <0>         0.1328
     54 H25        -4.7209    1.6426    1.8800 H         1 <0>         0.1305
     55 H26        -5.8117    2.2753    3.9936 H         1 <0>         0.1432
     56 H27        -3.6745   -2.1451    3.5375 H         1 <0>         0.1388
     57 H28        -5.5243   -2.2896    5.8880 H         1 <0>         0.3970
     58 H29        -6.8936    0.5312    6.1778 H         1 <0>         0.3988
     59 H30        -4.2382    0.8622    0.2132 H         1 <0>         0.3885
     60 H31        -1.3644   -1.5176   -0.0760 H         1 <0>         0.4269
@<TRIPOS>BOND
     1    1    2 1
     2    1   30 1
     3    1   31 1
     4    1   32 1
     5    2    3 1
     6    2   18 1
     7    2   33 1
     8    3    4 1
     9    3   34 1
    10    3   35 1
    11    4    5 1
    12    4   36 1
    13    4   37 1
    14    5    6 1
    15    5   38 1
    16    5   39 1
    17    6    7 1
    18    6   40 1
    19    6   41 1
    20    7    8 am
    21    7   42 1
    22    8    9 2
    23    8   10 1
    24   10   11 1
    25   11   12 1
    26   11   43 1
    27   11   44 1
    28   12   17 ar
    29   12   13 ar
    30   13   14 ar
    31   13   45 1
    32   14   15 ar
    33   14   46 1
    34   15   16 ar
    35   15   47 1
    36   16   17 ar
    37   16   48 1
    38   17   49 1
    39   18   19 1
    40   18   50 1
    41   18   60 1
    42   19   20 1
    43   19   51 1
    44   19   52 1
    45   20   21 1
    46   20   29 1
    47   20   53 1
    48   21   26 ar
    49   21   22 ar
    50   22   23 ar
    51   22   54 1
    52   23   24 ar
    53   23   55 1
    54   24   25 ar
    55   24   28 1
    56   25   26 ar
    57   25   27 1
    58   26   56 1
    59   27   57 1
    60   28   58 1
    61   29   59 1
@<TRIPOS>MOLECULE
CHEMBL345618__2
   60    61     0     0     0
SMALL
USER_CHARGES

@<TRIPOS>ATOM
      1 C1         -0.0187    1.5258    0.0104 C.3       1 <0>        -0.1848
      2 C2          0.0021   -0.0041    0.0020 C.3       1 <0>         0.0257
      3 C3         -1.4333   -0.5336    0.0129 C.3       1 <0>        -0.1464
      4 C4         -1.4133   -2.0590    0.1302 C.3       1 <0>        -0.1320
      5 C5         -2.8486   -2.5886    0.1411 C.3       1 <0>        -0.1345
      6 C6         -2.8286   -4.1140    0.2584 C.3       1 <0>         0.1355
      7 N1         -4.2030   -4.6210    0.2688 N.am      1 <0>        -0.7139
      8 C7         -4.4318   -5.9457    0.3656 C.2       1 <0>         0.6477
      9 O1         -3.4982   -6.7194    0.4443 O.2       1 <0>        -0.5678
     10 O2         -5.6949   -6.4117    0.3752 O.3       1 <0>        -0.3581
     11 C8         -5.8636   -7.8268    0.4802 C.3       1 <0>         0.1299
     12 C9         -7.3334   -8.1593    0.4752 C.ar      1 <0>        -0.1054
     13 C10        -8.0335   -8.2148    1.6659 C.ar      1 <0>        -0.0936
     14 C11        -9.3818   -8.5198    1.6613 C.ar      1 <0>        -0.1222
     15 C12       -10.0301   -8.7689    0.4661 C.ar      1 <0>        -0.1043
     16 C13        -9.3302   -8.7125   -0.7246 C.ar      1 <0>        -0.1224
     17 C14        -7.9828   -8.4033   -0.7205 C.ar      1 <0>        -0.0938
     18 N2          0.6897   -0.4778   -1.2066 N.4       1 <0>        -0.5061
     19 C15         2.1002   -0.0703   -1.1590 C.3       1 <0>        -0.0465
     20 C16         2.8163   -0.5637   -2.4178 C.3       1 <0>         0.1374
     21 C17         4.2874   -0.2536   -2.3131 C.ar      1 <0>        -0.1364
     22 C18         4.7446    1.0220   -2.5875 C.ar      1 <0>        -0.0990
     23 C19         6.0930    1.3115   -2.4928 C.ar      1 <0>        -0.1235
     24 C20         6.9896    0.3223   -2.1218 C.ar      1 <0>         0.1048
     25 C21         6.5294   -0.9615   -1.8452 C.ar      1 <0>         0.0903
     26 C22         5.1759   -1.2437   -1.9373 C.ar      1 <0>        -0.1129
     27 O3          7.4054   -1.9357   -1.4807 O.3       1 <0>        -0.4823
     28 O4          8.3165    0.6053   -2.0286 O.3       1 <0>        -0.4835
     29 O5          2.2715    0.0930   -3.5641 O.3       1 <0>        -0.5450
     30 H1          1.0039    1.9031    0.0027 H         1 <0>         0.0810
     31 H2         -0.5459    1.8868   -0.8726 H         1 <0>         0.0837
     32 H3         -0.5289    1.8773    0.9072 H         1 <0>         0.1078
     33 H4          0.5293   -0.3651    0.8851 H         1 <0>         0.1410
     34 H5         -1.9701   -0.1109    0.8621 H         1 <0>         0.1160
     35 H6         -1.9334   -0.2470   -0.9122 H         1 <0>         0.0922
     36 H7         -0.8764   -2.4817   -0.7190 H         1 <0>         0.0627
     37 H8         -0.9132   -2.3457    1.0553 H         1 <0>         0.0851
     38 H9         -3.3855   -2.1659    0.9903 H         1 <0>         0.0828
     39 H10        -3.3487   -2.3019   -0.7840 H         1 <0>         0.0793
     40 H11        -2.2918   -4.5367   -0.5908 H         1 <0>         0.0713
     41 H12        -2.3285   -4.4006    1.1836 H         1 <0>         0.0734
     42 H13        -4.9483   -4.0034    0.2060 H         1 <0>         0.4095
     43 H14        -5.3779   -8.3143   -0.3652 H         1 <0>         0.0794
     44 H15        -5.4147   -8.1783    1.4092 H         1 <0>         0.0796
     45 H16        -7.5270   -8.0202    2.5997 H         1 <0>         0.1245
     46 H17        -9.9286   -8.5638    2.5916 H         1 <0>         0.1278
     47 H18       -11.0833   -9.0078    0.4626 H         1 <0>         0.1273
     48 H19        -9.8366   -8.9074   -1.6584 H         1 <0>         0.1277
     49 H20        -7.4368   -8.3556   -1.6510 H         1 <0>         0.1243
     50 H21         0.6317   -1.4840   -1.2540 H         1 <0>         0.4270
     51 H22         2.1628    1.0167   -1.1079 H         1 <0>         0.1395
     52 H23         2.5740   -0.5034   -0.2781 H         1 <0>         0.1446
     53 H24         2.6781   -1.6404   -2.5160 H         1 <0>         0.1316
     54 H25         4.0468    1.7939   -2.8767 H         1 <0>         0.1303
     55 H26         6.4477    2.3086   -2.7084 H         1 <0>         0.1434
     56 H27         4.8156   -2.2383   -1.7195 H         1 <0>         0.1391
     57 H28         7.5517   -1.9962   -0.5267 H         1 <0>         0.3947
     58 H29         8.5935    0.9086   -1.1532 H         1 <0>         0.3972
     59 H30         2.3595    1.0558   -3.5447 H         1 <0>         0.3888
     60 H31         0.2511   -0.0769   -2.0221 H         1 <0>         0.4305
@<TRIPOS>BOND
     1    1    2 1
     2    1   30 1
     3    1   31 1
     4    1   32 1
     5    2    3 1
     6    2   18 1
     7    2   33 1
     8    3    4 1
     9    3   34 1
    10    3   35 1
    11    4    5 1
    12    4   36 1
    13    4   37 1
    14    5    6 1
    15    5   38 1
    16    5   39 1
    17    6    7 1
    18    6   40 1
    19    6   41 1
    20    7    8 am
    21    7   42 1
    22    8    9 2
    23    8   10 1
    24   10   11 1
    25   11   12 1
    26   11   43 1
    27   11   44 1
    28   12   17 ar
    29   12   13 ar
    30   13   14 ar
    31   13   45 1
    32   14   15 ar
    33   14   46 1
    34   15   16 ar
    35   15   47 1
    36   16   17 ar
    37   16   48 1
    38   17   49 1
    39   18   19 1
    40   18   50 1
    41   18   60 1
    42   19   20 1
    43   19   51 1
    44   19   52 1
    45   20   21 1
    46   20   29 1
    47   20   53 1
    48   21   26 ar
    49   21   22 ar
    50   22   23 ar
    51   22   54 1
    52   23   24 ar
    53   23   55 1
    54   24   25 ar
    55   24   28 1
    56   25   26 ar
    57   25   27 1
    58   26   56 1
    59   27   57 1
    60   28   58 1
    61   29   59 1
@<TRIPOS>MOLECULE
CHEMBL345618__3
   60    61     0     0     0
SMALL
USER_CHARGES

@<TRIPOS>ATOM
      1 C1         -0.0187    1.5258    0.0104 C.3       1 <0>        -0.1855
      2 C2          0.0021   -0.0041    0.0020 C.3       1 <0>         0.0257
      3 C3         -1.4333   -0.5336    0.0129 C.3       1 <0>        -0.1461
      4 C4         -1.4133   -2.0590    0.1302 C.3       1 <0>        -0.1323
      5 C5         -2.8486   -2.5886    0.1411 C.3       1 <0>        -0.1343
      6 C6         -2.8286   -4.1140    0.2584 C.3       1 <0>         0.1356
      7 N1         -4.2030   -4.6210    0.2688 N.am      1 <0>        -0.7138
      8 C7         -4.4318   -5.9457    0.3656 C.2       1 <0>         0.6477
      9 O1         -3.4982   -6.7194    0.4443 O.2       1 <0>        -0.5677
     10 O2         -5.6949   -6.4117    0.3752 O.3       1 <0>        -0.3582
     11 C8         -5.8636   -7.8268    0.4802 C.3       1 <0>         0.1299
     12 C9         -7.3334   -8.1593    0.4752 C.ar      1 <0>        -0.1054
     13 C10        -8.0335   -8.2148    1.6659 C.ar      1 <0>        -0.0936
     14 C11        -9.3818   -8.5198    1.6613 C.ar      1 <0>        -0.1222
     15 C12       -10.0301   -8.7689    0.4661 C.ar      1 <0>        -0.1044
     16 C13        -9.3302   -8.7125   -0.7246 C.ar      1 <0>        -0.1224
     17 C14        -7.9828   -8.4033   -0.7205 C.ar      1 <0>        -0.0938
     18 N2          0.6897   -0.4778   -1.2066 N.4       1 <0>        -0.5052
     19 C15         2.1002   -0.0703   -1.1590 C.3       1 <0>        -0.0475
     20 C16         2.8163   -0.5637   -2.4178 C.3       1 <0>         0.1378
     21 C17         4.2634   -0.1456   -2.3691 C.ar      1 <0>        -0.1367
     22 C18         5.1860   -0.9306   -1.7028 C.ar      1 <0>        -0.0977
     23 C19         6.5146   -0.5515   -1.6552 C.ar      1 <0>        -0.1233
     24 C20         6.9241    0.6174   -2.2765 C.ar      1 <0>         0.1047
     25 C21         5.9955    1.4073   -2.9474 C.ar      1 <0>         0.0898
     26 C22         4.6662    1.0190   -2.9954 C.ar      1 <0>        -0.1137
     27 O3          6.3926    2.5554   -3.5587 O.3       1 <0>        -0.4847
     28 O4          8.2306    0.9921   -2.2302 O.3       1 <0>        -0.4851
     29 O5          2.7343   -1.9888   -2.4849 O.3       1 <0>        -0.5468
     30 H1          1.0039    1.9031    0.0027 H         1 <0>         0.0822
     31 H2         -0.5459    1.8868   -0.8726 H         1 <0>         0.0835
     32 H3         -0.5289    1.8773    0.9072 H         1 <0>         0.1079
     33 H4          0.5293   -0.3651    0.8851 H         1 <0>         0.1407
     34 H5         -1.9701   -0.1109    0.8621 H         1 <0>         0.1159
     35 H6         -1.9334   -0.2470   -0.9122 H         1 <0>         0.0919
     36 H7         -0.8764   -2.4817   -0.7190 H         1 <0>         0.0636
     37 H8         -0.9132   -2.3457    1.0553 H         1 <0>         0.0848
     38 H9         -3.3855   -2.1659    0.9903 H         1 <0>         0.0826
     39 H10        -3.3487   -2.3019   -0.7840 H         1 <0>         0.0791
     40 H11        -2.2918   -4.5367   -0.5908 H         1 <0>         0.0716
     41 H12        -2.3285   -4.4006    1.1836 H         1 <0>         0.0733
     42 H13        -4.9483   -4.0034    0.2060 H         1 <0>         0.4094
     43 H14        -5.3779   -8.3143   -0.3652 H         1 <0>         0.0794
     44 H15        -5.4147   -8.1783    1.4092 H         1 <0>         0.0796
     45 H16        -7.5270   -8.0202    2.5997 H         1 <0>         0.1246
     46 H17        -9.9286   -8.5638    2.5916 H         1 <0>         0.1278
     47 H18       -11.0833   -9.0078    0.4626 H         1 <0>         0.1272
     48 H19        -9.8366   -8.9074   -1.6584 H         1 <0>         0.1277
     49 H20        -7.4368   -8.3556   -1.6510 H         1 <0>         0.1243
     50 H21         0.6317   -1.4840   -1.2540 H         1 <0>         0.4297
     51 H22         2.1628    1.0167   -1.1079 H         1 <0>         0.1470
     52 H23         2.5740   -0.5034   -0.2781 H         1 <0>         0.1381
     53 H24         2.3425   -0.1306   -3.2988 H         1 <0>         0.1329
     54 H25         4.8681   -1.8419   -1.2182 H         1 <0>         0.1308
     55 H26         7.2332   -1.1661   -1.1335 H         1 <0>         0.1434
     56 H27         3.9442    1.6283   -3.5187 H         1 <0>         0.1386
     57 H28         6.6625    2.4376   -4.4798 H         1 <0>         0.3969
     58 H29         8.7639    0.6505   -2.9610 H         1 <0>         0.3988
     59 H30         3.1369   -2.4418   -1.7314 H         1 <0>         0.3890
     60 H31         0.2511   -0.0769   -2.0221 H         1 <0>         0.4269
@<TRIPOS>BOND
     1    1    2 1
     2    1   30 1
     3    1   31 1
     4    1   32 1
     5    2    3 1
     6    2   18 1
     7    2   33 1
     8    3    4 1
     9    3   34 1
    10    3   35 1
    11    4    5 1
    12    4   36 1
    13    4   37 1
    14    5    6 1
    15    5   38 1
    16    5   39 1
    17    6    7 1
    18    6   40 1
    19    6   41 1
    20    7    8 am
    21    7   42 1
    22    8    9 2
    23    8   10 1
    24   10   11 1
    25   11   12 1
    26   11   43 1
    27   11   44 1
    28   12   17 ar
    29   12   13 ar
    30   13   14 ar
    31   13   45 1
    32   14   15 ar
    33   14   46 1
    34   15   16 ar
    35   15   47 1
    36   16   17 ar
    37   16   48 1
    38   17   49 1
    39   18   19 1
    40   18   50 1
    41   18   60 1
    42   19   20 1
    43   19   51 1
    44   19   52 1
    45   20   21 1
    46   20   29 1
    47   20   53 1
    48   21   26 ar
    49   21   22 ar
    50   22   23 ar
    51   22   54 1
    52   23   24 ar
    53   23   55 1
    54   24   25 ar
    55   24   28 1
    56   25   26 ar
    57   25   27 1
    58   26   56 1
    59   27   57 1
    60   28   58 1
    61   29   59 1
@<TRIPOS>MOLECULE
CHEMBL250760
   61    64     0     0     0
SMALL
USER_CHARGES

@<TRIPOS>ATOM
      1 C1         -0.0167    1.3781    0.0096 C.ar      1 <0>        -0.1098
      2 C2          1.1709    2.0855    0.0021 C.ar      1 <0>        -0.1229
      3 C3          2.3773    1.4107   -0.0130 C.ar      1 <0>        -0.0967
      4 C4          2.3960    0.0285   -0.0201 C.ar      1 <0>        -0.0977
      5 C5          1.2084   -0.6789   -0.0117 C.ar      1 <0>        -0.0969
      6 C6          0.0021   -0.0041    0.0020 C.ar      1 <0>        -0.1239
      7 C7          3.7112   -0.7071   -0.0376 C.3       1 <0>         0.1057
      8 O1          4.1410   -0.9464    1.3041 O.3       1 <0>        -0.3758
      9 C8          5.3853   -1.6423    1.4004 C.3       1 <0>         0.1573
     10 C9          5.7397   -1.8393    2.8519 C.2       1 <0>         0.2059
     11 N1          5.4042   -2.8654    3.5784 N.2       1 <0>        -0.4550
     12 C10         5.8977   -2.6925    4.8250 C.2       1 <0>         0.0157
     13 C11         6.5567   -1.5084    4.8383 C.2       1 <0>        -0.0419
     14 O2          6.4555   -0.9888    3.5995 O.3       1 <0>        -0.1869
     15 C12         5.7458   -3.6268    5.9680 C.ar      1 <0>        -0.0261
     16 C13         6.3063   -3.3138    7.2049 C.ar      1 <0>        -0.0675
     17 C14         6.1635   -4.1842    8.2653 C.ar      1 <0>        -0.1355
     18 C15         5.4628   -5.3712    8.1013 C.ar      1 <0>         0.1155
     19 C16         4.9038   -5.6859    6.8703 C.ar      1 <0>        -0.1994
     20 C17         5.0376   -4.8163    5.8080 C.ar      1 <0>        -0.0490
     21 O3          5.3241   -6.2270    9.1478 O.3       1 <0>        -0.3278
     22 C18         4.5911   -7.4302    8.9092 C.3       1 <0>         0.0238
     23 C19         4.5413   -8.2604   10.1935 C.3       1 <0>         0.0006
     24 N2          3.7755   -7.5351   11.2160 N.4       1 <0>        -0.5061
     25 C20         3.7278   -8.3321   12.4490 C.3       1 <0>        -0.0435
     26 C21         2.9302   -7.5767   13.5140 C.3       1 <0>         0.1415
     27 H1          1.9161   -7.4036   13.1537 H         1 <0>         0.1338
     28 C22         2.8812   -8.3943   14.7789 C.ar      1 <0>        -0.2004
     29 C23         1.8038   -9.2293   15.0340 C.ar      1 <0>        -0.0549
     30 C24         1.8013   -9.9625   16.2104 C.ar      1 <0>        -0.1642
     31 C25         2.8653   -9.8380   17.0840 C.ar      1 <0>         0.1226
     32 N3          3.8732   -9.0336   16.8088 N.ar      1 <0>        -0.4747
     33 C26         3.9120   -8.3258   15.6967 C.ar      1 <0>         0.1175
     34 O4          3.5612   -6.3227   13.7814 O.3       1 <0>        -0.5450
     35 H2         -0.9591    1.9053    0.0259 H         1 <0>         0.1248
     36 H3          1.1563    3.1654    0.0076 H         1 <0>         0.1259
     37 H4          3.3051    1.9634   -0.0196 H         1 <0>         0.1241
     38 H5          1.2231   -1.7588   -0.0176 H         1 <0>         0.1232
     39 H6         -0.9258   -0.5567    0.0082 H         1 <0>         0.1250
     40 H7          3.5884   -1.6586   -0.5549 H         1 <0>         0.0664
     41 H8          4.4573   -0.1052   -0.5563 H         1 <0>         0.0666
     42 H9          5.2973   -2.6133    0.9129 H         1 <0>         0.0990
     43 H10         6.1662   -1.0598    0.9116 H         1 <0>         0.0864
     44 H11         7.0693   -1.0674    5.6804 H         1 <0>         0.2216
     45 H12         6.8522   -2.3907    7.3329 H         1 <0>         0.1378
     46 H13         6.5976   -3.9421    9.2242 H         1 <0>         0.1388
     47 H14         4.3598   -6.6105    6.7455 H         1 <0>         0.1314
     48 H15         4.5980   -5.0593    4.8519 H         1 <0>         0.1404
     49 H16         3.5765   -7.1818    8.5976 H         1 <0>         0.0890
     50 H17         5.0819   -8.0050    8.1238 H         1 <0>         0.1122
     51 H18         4.0600   -9.2168    9.9894 H         1 <0>         0.1525
     52 H19         5.5554   -8.4335   10.5537 H         1 <0>         0.1440
     53 H20         4.2211   -6.6497   11.4048 H         1 <0>         0.4395
     54 H21         3.2465   -9.2885   12.2450 H         1 <0>         0.1456
     55 H22         4.7419   -8.5052   12.8093 H         1 <0>         0.1391
     56 H23         0.9859   -9.3061   14.3329 H         1 <0>         0.1410
     57 H24         0.9783  -10.6225   16.4417 H         1 <0>         0.1472
     58 H25         2.8710  -10.4058   18.0026 H         1 <0>         0.1672
     59 H26         4.7569   -7.6815   15.5032 H         1 <0>         0.1533
     60 H27         4.4687   -6.4005   14.1063 H         1 <0>         0.3903
     61 H28         2.8368   -7.3748   10.8825 H         1 <0>         0.4293
@<TRIPOS>BOND
     1    1    6 ar
     2    1    2 ar
     3    1   35 1
     4    2    3 ar
     5    2   36 1
     6    3    4 ar
     7    3   37 1
     8    4    5 ar
     9    4    7 1
    10    5    6 ar
    11    5   38 1
    12    6   39 1
    13    7    8 1
    14    7   40 1
    15    7   41 1
    16    8    9 1
    17    9   10 1
    18    9   42 1
    19    9   43 1
    20   10   14 1
    21   10   11 2
    22   11   12 1
    23   12   13 2
    24   12   15 1
    25   13   14 1
    26   13   44 1
    27   15   20 ar
    28   15   16 ar
    29   16   17 ar
    30   16   45 1
    31   17   18 ar
    32   17   46 1
    33   18   19 ar
    34   18   21 1
    35   19   20 ar
    36   19   47 1
    37   20   48 1
    38   21   22 1
    39   22   23 1
    40   22   49 1
    41   22   50 1
    42   23   24 1
    43   23   51 1
    44   23   52 1
    45   24   25 1
    46   24   53 1
    47   24   61 1
    48   25   26 1
    49   25   54 1
    50   25   55 1
    51   26   27 1
    52   26   28 1
    53   26   34 1
    54   28   33 ar
    55   28   29 ar
    56   29   30 ar
    57   29   56 1
    58   30   31 ar
    59   30   57 1
    60   31   32 ar
    61   31   58 1
    62   32   33 ar
    63   33   59 1
    64   34   60 1
@<TRIPOS>MOLECULE
CHEMBL250760__1
   60    63     0     0     0
SMALL
USER_CHARGES

@<TRIPOS>ATOM
      1 C1         -0.0167    1.3781    0.0096 C.ar      1 <0>        -0.1112
      2 C2          1.1709    2.0855    0.0021 C.ar      1 <0>        -0.1239
      3 C3          2.3773    1.4107   -0.0130 C.ar      1 <0>        -0.0972
      4 C4          2.3960    0.0285   -0.0201 C.ar      1 <0>        -0.0960
      5 C5          1.2084   -0.6789   -0.0117 C.ar      1 <0>        -0.0960
      6 C6          0.0021   -0.0041    0.0020 C.ar      1 <0>        -0.1236
      7 C7          3.7112   -0.7071   -0.0376 C.3       1 <0>         0.1053
      8 O1          4.1410   -0.9464    1.3041 O.3       1 <0>        -0.3750
      9 C8          5.3853   -1.6423    1.4004 C.3       1 <0>         0.1607
     10 C9          5.7397   -1.8393    2.8519 C.2       1 <0>         0.1956
     11 N1          5.4042   -2.8654    3.5784 N.2       1 <0>        -0.4534
     12 C10         5.8977   -2.6925    4.8250 C.2       1 <0>         0.0334
     13 C11         6.5567   -1.5084    4.8383 C.2       1 <0>        -0.0546
     14 O2          6.4555   -0.9888    3.5995 O.3       1 <0>        -0.1913
     15 C12         5.7458   -3.6268    5.9680 C.ar      1 <0>        -0.0543
     16 C13         6.3063   -3.3138    7.2049 C.ar      1 <0>        -0.0655
     17 C14         6.1635   -4.1842    8.2653 C.ar      1 <0>        -0.1490
     18 C15         5.4628   -5.3712    8.1013 C.ar      1 <0>         0.1416
     19 C16         4.9038   -5.6859    6.8703 C.ar      1 <0>        -0.2073
     20 C17         5.0376   -4.8163    5.8080 C.ar      1 <0>        -0.0460
     21 O3          5.3241   -6.2270    9.1478 O.3       1 <0>        -0.3148
     22 C18         4.5911   -7.4302    8.9092 C.3       1 <0>         0.0578
     23 C19         4.5413   -8.2604   10.1935 C.3       1 <0>         0.0617
     24 N2          3.7755   -7.5351   11.2160 N.3       1 <0>        -0.6845
     25 C20         3.7066   -8.3038   12.4659 C.3       1 <0>         0.0317
     26 C21         2.9032   -7.5180   13.5042 C.3       1 <0>         0.1562
     27 H1          1.8949   -7.3446   13.1282 H         1 <0>         0.1194
     28 C22         2.8324   -8.3066   14.7864 C.ar      1 <0>        -0.1714
     29 C23         1.7450   -9.1266   15.0473 C.ar      1 <0>        -0.0634
     30 C24         1.7225   -9.8332   16.2397 C.ar      1 <0>        -0.1686
     31 C25         2.7773   -9.6979   17.1228 C.ar      1 <0>         0.0994
     32 N3          3.7952   -8.9083   16.8417 N.ar      1 <0>        -0.4808
     33 C26         3.8530   -8.2260   15.7145 C.ar      1 <0>         0.1071
     34 O4          3.5418   -6.2637   13.7510 O.3       1 <0>        -0.5479
     35 H2         -0.9591    1.9053    0.0259 H         1 <0>         0.1238
     36 H3          1.1563    3.1654    0.0076 H         1 <0>         0.1247
     37 H4          3.3051    1.9634   -0.0196 H         1 <0>         0.1236
     38 H5          1.2231   -1.7588   -0.0176 H         1 <0>         0.1241
     39 H6         -0.9258   -0.5567    0.0082 H         1 <0>         0.1249
     40 H7          3.5884   -1.6586   -0.5549 H         1 <0>         0.0657
     41 H8          4.4573   -0.1052   -0.5563 H         1 <0>         0.0649
     42 H9          5.2973   -2.6133    0.9129 H         1 <0>         0.0975
     43 H10         6.1662   -1.0598    0.9116 H         1 <0>         0.0837
     44 H11         7.0693   -1.0674    5.6804 H         1 <0>         0.2206
     45 H12         6.8522   -2.3907    7.3329 H         1 <0>         0.1310
     46 H13         6.5976   -3.9421    9.2242 H         1 <0>         0.1358
     47 H14         4.3598   -6.6105    6.7455 H         1 <0>         0.1318
     48 H15         4.5980   -5.0593    4.8519 H         1 <0>         0.1343
     49 H16         3.5765   -7.1818    8.5976 H         1 <0>         0.0757
     50 H17         5.0819   -8.0050    8.1238 H         1 <0>         0.0699
     51 H18         4.0600   -9.2168    9.9894 H         1 <0>         0.0936
     52 H19         5.5554   -8.4335   10.5537 H         1 <0>         0.0428
     53 H20         4.1647   -6.6180   11.3764 H         1 <0>         0.3578
     54 H21         3.2195   -9.2605   12.2776 H         1 <0>         0.0840
     55 H22         4.7149   -8.4771   12.8419 H         1 <0>         0.0366
     56 H23         0.9347   -9.2124   14.3385 H         1 <0>         0.1379
     57 H24         0.8912  -10.4810   16.4759 H         1 <0>         0.1389
     58 H25         2.7674  -10.2450   18.0539 H         1 <0>         0.1584
     59 H26         4.7056   -7.5934   15.5167 H         1 <0>         0.1509
     60 H27         4.4447   -6.3416   14.0882 H         1 <0>         0.3728
@<TRIPOS>BOND
     1    1    6 ar
     2    1    2 ar
     3    1   35 1
     4    2    3 ar
     5    2   36 1
     6    3    4 ar
     7    3   37 1
     8    4    5 ar
     9    4    7 1
    10    5    6 ar
    11    5   38 1
    12    6   39 1
    13    7    8 1
    14    7   40 1
    15    7   41 1
    16    8    9 1
    17    9   10 1
    18    9   42 1
    19    9   43 1
    20   10   14 1
    21   10   11 2
    22   11   12 1
    23   12   13 2
    24   12   15 1
    25   13   14 1
    26   13   44 1
    27   15   20 ar
    28   15   16 ar
    29   16   17 ar
    30   16   45 1
    31   17   18 ar
    32   17   46 1
    33   18   19 ar
    34   18   21 1
    35   19   20 ar
    36   19   47 1
    37   20   48 1
    38   21   22 1
    39   22   23 1
    40   22   49 1
    41   22   50 1
    42   23   24 1
    43   23   51 1
    44   23   52 1
    45   24   25 1
    46   24   53 1
    47   25   26 1
    48   25   54 1
    49   25   55 1
    50   26   27 1
    51   26   28 1
    52   26   34 1
    53   28   33 ar
    54   28   29 ar
    55   29   30 ar
    56   29   56 1
    57   30   31 ar
    58   30   57 1
    59   31   32 ar
    60   31   58 1
    61   32   33 ar
    62   33   59 1
    63   34   60 1
@<TRIPOS>MOLECULE
CHEMBL156754
   66    68     0     0     0
SMALL
USER_CHARGES

@<TRIPOS>ATOM
      1 C1         -0.0187    1.5258    0.0104 C.3       1 <0>        -0.1713
      2 C2          0.0021   -0.0041    0.0020 C.3       1 <0>         0.1814
      3 C3         -1.4333   -0.5336    0.0129 C.3       1 <0>        -0.1345
      4 C4         -1.4126   -2.0635    0.0045 C.3       1 <0>        -0.1089
      5 C5         -0.6726   -2.5703    1.2440 C.3       1 <0>        -0.1014
      6 C6          0.7628   -2.0407    1.2331 C.3       1 <0>        -0.1327
      7 C7          0.7421   -0.5109    1.2415 C.3       1 <0>        -0.1221
      8 C8         -0.6518   -4.1002    1.2356 C.3       1 <0>         0.0596
      9 C9         -2.0829   -4.6290    1.1207 C.3       1 <0>        -0.1806
     10 C10         0.1711   -4.5925    0.0434 C.3       1 <0>        -0.1827
     11 N1         -0.0480   -4.5885    2.4825 N.4       1 <0>        -0.4987
     12 C11        -0.0280   -6.0574    2.4744 C.3       1 <0>        -0.0518
     13 C12         0.6009   -6.5661    3.7731 C.3       1 <0>         0.0876
     14 C13         0.7358   -8.0889    3.7122 C.3       1 <0>         0.0292
     15 O1          1.4280   -8.5526    4.8731 O.3       1 <0>        -0.2949
     16 C14         1.6326   -9.8912    4.9753 C.ar      1 <0>         0.1811
     17 C15         1.1850  -10.7400    3.9824 C.ar      1 <0>        -0.2416
     18 C16         1.3923  -12.1082    4.0825 C.ar      1 <0>        -0.0458
     19 C17         2.0459  -12.6432    5.1711 C.ar      1 <0>        -0.1577
     20 C18         2.5072  -11.8105    6.1859 C.ar      1 <0>         0.1574
     21 C19         2.3061  -10.4203    6.0893 C.ar      1 <0>        -0.1343
     22 C20         2.8788   -9.8375    7.2446 C.2       1 <0>        -0.0927
     23 C21         3.4054  -10.8403    7.9970 C.2       1 <0>         0.1261
     24 N2          3.1770  -12.0479    7.3648 N.pl3     1 <0>        -0.5672
     25 H1          3.4527  -12.9182    7.6926 H         1 <0>         0.4298
     26 C22         4.0783  -10.6729    9.2500 C.1       1 <0>         0.2614
     27 N3          4.6120  -10.5402   10.2439 N.1       1 <0>        -0.3757
     28 O2         -0.2303   -6.2053    4.8781 O.3       1 <0>        -0.5420
     29 N4          0.6878   -0.4765   -1.2033 N.am      1 <0>        -0.7220
     30 C23         0.2113   -0.1507   -2.4212 C.2       1 <0>         0.5127
     31 O3         -0.7852    0.5337   -2.5193 O.2       1 <0>        -0.4978
     32 C24         0.9167   -0.6367   -3.6611 C.3       1 <0>        -0.1249
     33 Br1        -0.0342    0.0146   -5.2538 Br        1 <0>        -0.0887
     34 H2          1.0039    1.9031    0.0027 H         1 <0>         0.0594
     35 H3         -0.5459    1.8868   -0.8726 H         1 <0>         0.0838
     36 H4         -0.5289    1.8773    0.9072 H         1 <0>         0.0674
     37 H5         -1.9435   -0.1821    0.9097 H         1 <0>         0.0766
     38 H6         -1.9605   -0.1726   -0.8702 H         1 <0>         0.0984
     39 H7         -2.4352   -2.4408    0.0122 H         1 <0>         0.0782
     40 H8         -0.9024   -2.4150   -0.8923 H         1 <0>         0.0741
     41 H9         -1.1828   -2.2188    2.1408 H         1 <0>         0.0982
     42 H10         1.2900   -2.4018    2.1162 H         1 <0>         0.0632
     43 H11         1.2730   -2.3923    0.3363 H         1 <0>         0.0808
     44 H12         1.7647   -0.1336    1.2338 H         1 <0>         0.0824
     45 H13         0.2319   -0.1594    2.1383 H         1 <0>         0.0879
     46 H14        -2.5310   -4.2666    0.1955 H         1 <0>         0.1104
     47 H15        -2.0681   -5.7189    1.1147 H         1 <0>         0.0818
     48 H16        -2.6692   -4.2782    1.9700 H         1 <0>         0.0844
     49 H17         1.1906   -4.2157    0.1252 H         1 <0>         0.0856
     50 H18         0.1859   -5.6824    0.0374 H         1 <0>         0.0826
     51 H19        -0.2770   -4.2301   -0.8818 H         1 <0>         0.1084
     52 H20         0.8958   -4.2398    2.5583 H         1 <0>         0.4257
     53 H21        -1.0476   -6.4341    2.3925 H         1 <0>         0.1431
     54 H22         0.5582   -6.4081    1.6251 H         1 <0>         0.1480
     55 H23         1.5869   -6.1187    3.8989 H         1 <0>         0.1338
     56 H24        -0.2557   -8.5403    3.6758 H         1 <0>         0.0796
     57 H25         1.2954   -8.3686    2.8196 H         1 <0>         0.0836
     58 H26         0.6703  -10.3365    3.1230 H         1 <0>         0.1278
     59 H27         1.0371  -12.7610    3.2988 H         1 <0>         0.1357
     60 H28         2.2001  -13.7101    5.2370 H         1 <0>         0.1316
     61 H29         2.8951   -8.7848    7.4854 H         1 <0>         0.1601
     62 H30        -1.1250   -6.5694    4.8326 H         1 <0>         0.3904
     63 H31         1.4848   -1.0239   -1.1249 H         1 <0>         0.3978
     64 H32         1.9393   -0.2594   -3.6688 H         1 <0>         0.1274
     65 H33         0.9314   -1.7265   -3.6671 H         1 <0>         0.1238
     66 H34        -0.5906   -4.2639    3.2687 H         1 <0>         0.4320
@<TRIPOS>BOND
     1    1    2 1
     2    1   34 1
     3    1   35 1
     4    1   36 1
     5    2    7 1
     6    2    3 1
     7    2   29 1
     8    3    4 1
     9    3   37 1
    10    3   38 1
    11    4    5 1
    12    4   39 1
    13    4   40 1
    14    5    6 1
    15    5    8 1
    16    5   41 1
    17    6    7 1
    18    6   42 1
    19    6   43 1
    20    7   44 1
    21    7   45 1
    22    8    9 1
    23    8   10 1
    24    8   11 1
    25    9   46 1
    26    9   47 1
    27    9   48 1
    28   10   49 1
    29   10   50 1
    30   10   51 1
    31   11   12 1
    32   11   52 1
    33   11   66 1
    34   12   13 1
    35   12   53 1
    36   12   54 1
    37   13   14 1
    38   13   28 1
    39   13   55 1
    40   14   15 1
    41   14   56 1
    42   14   57 1
    43   15   16 1
    44   16   21 ar
    45   16   17 ar
    46   17   18 ar
    47   17   58 1
    48   18   19 ar
    49   18   59 1
    50   19   20 ar
    51   19   60 1
    52   20   24 1
    53   20   21 ar
    54   21   22 1
    55   22   23 2
    56   22   61 1
    57   23   24 1
    58   23   26 1
    59   24   25 1
    60   26   27 3
    61   28   62 1
    62   29   30 am
    63   29   63 1
    64   30   31 2
    65   30   32 1
    66   32   33 1
    67   32   64 1
    68   32   65 1
@<TRIPOS>MOLECULE
CHEMBL156754__1
   66    68     0     0     0
SMALL
USER_CHARGES

@<TRIPOS>ATOM
      1 C1         -0.0187    1.5258    0.0104 C.3       1 <0>        -0.1713
      2 C2          0.0021   -0.0041    0.0020 C.3       1 <0>         0.1813
      3 C3         -1.4333   -0.5336    0.0129 C.3       1 <0>        -0.1345
      4 C4         -1.4126   -2.0635    0.0045 C.3       1 <0>        -0.1090
      5 C5         -0.6726   -2.5703    1.2440 C.3       1 <0>        -0.1015
      6 C6          0.7628   -2.0407    1.2331 C.3       1 <0>        -0.1327
      7 C7          0.7421   -0.5109    1.2415 C.3       1 <0>        -0.1220
      8 C8         -0.6518   -4.1002    1.2356 C.3       1 <0>         0.0595
      9 C9         -2.0829   -4.6290    1.1207 C.3       1 <0>        -0.1813
     10 C10         0.1711   -4.5925    0.0434 C.3       1 <0>        -0.1822
     11 N1         -0.0480   -4.5885    2.4825 N.4       1 <0>        -0.4983
     12 C11        -0.0280   -6.0574    2.4744 C.3       1 <0>        -0.0519
     13 C12         0.6009   -6.5661    3.7731 C.3       1 <0>         0.0872
     14 C13         0.6217   -8.0959    3.7647 C.3       1 <0>         0.0293
     15 O1          1.1009   -8.5727    5.0236 O.3       1 <0>        -0.2948
     16 C14         1.1816   -9.9189    5.1829 C.ar      1 <0>         0.1811
     17 C15         0.8152  -10.7632    4.1535 C.ar      1 <0>        -0.2416
     18 C16         0.8965  -12.1392    4.3116 C.ar      1 <0>        -0.0458
     19 C17         1.3425  -12.6865    5.4950 C.ar      1 <0>        -0.1577
     20 C18         1.7180  -11.8586    6.5483 C.ar      1 <0>         0.1574
     21 C19         1.6440  -10.4610    6.3940 C.ar      1 <0>        -0.1343
     22 C20         2.0894   -9.8860    7.6078 C.2       1 <0>        -0.0926
     23 C21         2.4212  -10.9007    8.4499 C.2       1 <0>         0.1261
     24 N2          2.1906  -12.1075    7.8169 N.pl3     1 <0>        -0.5672
     25 H1          2.3463  -12.9851    8.1997 H         1 <0>         0.4298
     26 C22         2.9183  -10.7442    9.7837 C.1       1 <0>         0.2613
     27 N3          3.3126  -10.6200   10.8418 N.1       1 <0>        -0.3757
     28 O2          1.9375   -6.0721    3.8804 O.3       1 <0>        -0.5428
     29 N4          0.6878   -0.4765   -1.2033 N.am      1 <0>        -0.7220
     30 C23         0.2113   -0.1507   -2.4212 C.2       1 <0>         0.5127
     31 O3         -0.7852    0.5337   -2.5193 O.2       1 <0>        -0.4978
     32 C24         0.9167   -0.6367   -3.6611 C.3       1 <0>        -0.1249
     33 Br1        -0.0342    0.0146   -5.2538 Br        1 <0>        -0.0887
     34 H2          1.0039    1.9031    0.0027 H         1 <0>         0.0594
     35 H3         -0.5459    1.8868   -0.8726 H         1 <0>         0.0838
     36 H4         -0.5289    1.8773    0.9072 H         1 <0>         0.0674
     37 H5         -1.9435   -0.1821    0.9097 H         1 <0>         0.0766
     38 H6         -1.9605   -0.1726   -0.8702 H         1 <0>         0.0984
     39 H7         -2.4352   -2.4408    0.0122 H         1 <0>         0.0783
     40 H8         -0.9024   -2.4150   -0.8923 H         1 <0>         0.0741
     41 H9         -1.1828   -2.2188    2.1408 H         1 <0>         0.0981
     42 H10         1.2900   -2.4018    2.1162 H         1 <0>         0.0642
     43 H11         1.2730   -2.3923    0.3363 H         1 <0>         0.0804
     44 H12         1.7647   -0.1336    1.2338 H         1 <0>         0.0825
     45 H13         0.2319   -0.1594    2.1383 H         1 <0>         0.0878
     46 H14        -2.5310   -4.2666    0.1955 H         1 <0>         0.1105
     47 H15        -2.0681   -5.7189    1.1147 H         1 <0>         0.0824
     48 H16        -2.6692   -4.2782    1.9700 H         1 <0>         0.0847
     49 H17         1.1906   -4.2157    0.1252 H         1 <0>         0.0853
     50 H18         0.1859   -5.6824    0.0374 H         1 <0>         0.0820
     51 H19        -0.2770   -4.2301   -0.8818 H         1 <0>         0.1083
     52 H20         0.8958   -4.2398    2.5583 H         1 <0>         0.4291
     53 H21        -1.0476   -6.4341    2.3925 H         1 <0>         0.1493
     54 H22         0.5582   -6.4081    1.6251 H         1 <0>         0.1418
     55 H23         0.0147   -6.2153    4.6224 H         1 <0>         0.1357
     56 H24        -0.3870   -8.4720    3.5938 H         1 <0>         0.0841
     57 H25         1.2795   -8.4460    2.9692 H         1 <0>         0.0791
     58 H26         0.4629  -10.3501    3.2199 H         1 <0>         0.1278
     59 H27         0.6068  -12.7884    3.4986 H         1 <0>         0.1357
     60 H28         1.4003  -13.7593    5.6051 H         1 <0>         0.1316
     61 H29         2.1546   -8.8303    7.8261 H         1 <0>         0.1601
     62 H30         2.5172   -6.3457    3.1564 H         1 <0>         0.3891
     63 H31         1.4848   -1.0239   -1.1249 H         1 <0>         0.3978
     64 H32         1.9393   -0.2594   -3.6688 H         1 <0>         0.1274
     65 H33         0.9314   -1.7265   -3.6671 H         1 <0>         0.1237
     66 H34        -0.5906   -4.2639    3.2687 H         1 <0>         0.4286
@<TRIPOS>BOND
     1    1    2 1
     2    1   34 1
     3    1   35 1
     4    1   36 1
     5    2    7 1
     6    2    3 1
     7    2   29 1
     8    3    4 1
     9    3   37 1
    10    3   38 1
    11    4    5 1
    12    4   39 1
    13    4   40 1
    14    5    6 1
    15    5    8 1
    16    5   41 1
    17    6    7 1
    18    6   42 1
    19    6   43 1
    20    7   44 1
    21    7   45 1
    22    8    9 1
    23    8   10 1
    24    8   11 1
    25    9   46 1
    26    9   47 1
    27    9   48 1
    28   10   49 1
    29   10   50 1
    30   10   51 1
    31   11   12 1
    32   11   52 1
    33   11   66 1
    34   12   13 1
    35   12   53 1
    36   12   54 1
    37   13   14 1
    38   13   28 1
    39   13   55 1
    40   14   15 1
    41   14   56 1
    42   14   57 1
    43   15   16 1
    44   16   21 ar
    45   16   17 ar
    46   17   18 ar
    47   17   58 1
    48   18   19 ar
    49   18   59 1
    50   19   20 ar
    51   19   60 1
    52   20   24 1
    53   20   21 ar
    54   21   22 1
    55   22   23 2
    56   22   61 1
    57   23   24 1
    58   23   26 1
    59   24   25 1
    60   26   27 3
    61   28   62 1
    62   29   30 am
    63   29   63 1
    64   30   31 2
    65   30   32 1
    66   32   33 1
    67   32   64 1
    68   32   65 1
@<TRIPOS>MOLECULE
CHEMBL486278
   56    58     0     0     0
SMALL
USER_CHARGES

@<TRIPOS>ATOM
      1 C1         -0.0187    1.5258    0.0104 C.3       1 <0>        -0.1807
      2 C2          0.0021   -0.0041    0.0020 C.3       1 <0>         0.0587
      3 C3          0.7421   -0.5109    1.2415 C.3       1 <0>        -0.1806
      4 C4         -1.4333   -0.5336    0.0129 C.3       1 <0>        -0.0839
      5 C5         -2.1387   -0.0476    1.2528 C.ar      1 <0>        -0.1448
      6 C6         -2.0922   -0.7990    2.4125 C.ar      1 <0>        -0.0681
      7 C7         -2.7383   -0.3559    3.5503 C.ar      1 <0>        -0.1494
      8 C8         -3.4339    0.8443    3.5287 C.ar      1 <0>         0.1474
      9 C9         -3.4787    1.5965    2.3639 C.ar      1 <0>        -0.2069
     10 C10        -2.8265    1.1516    1.2302 C.ar      1 <0>        -0.0665
     11 O1         -4.0708    1.2821    4.6466 O.3       1 <0>        -0.3120
     12 C11        -4.7671    2.5263    4.5512 C.3       1 <0>         0.0234
     13 N1          0.6897   -0.4778   -1.2066 N.4       1 <0>        -0.4974
     14 C12         2.0678    0.0307   -1.2170 C.3       1 <0>        -0.0506
     15 C13         2.7840   -0.4628   -2.4758 C.3       1 <0>         0.0869
     16 H1          2.2568   -0.1017   -3.3589 H         1 <0>         0.1350
     17 C14         4.2193    0.0668   -2.4867 C.3       1 <0>         0.0313
     18 O2          4.8516   -0.2959   -3.7158 O.3       1 <0>        -0.3031
     19 C15         6.1408    0.1009   -3.8874 C.ar      1 <0>         0.1364
     20 C16         6.7857    0.8187   -2.8929 C.ar      1 <0>        -0.2014
     21 C17         8.0977    1.2235   -3.0656 C.ar      1 <0>        -0.0663
     22 C18         8.7750    0.9161   -4.2293 C.ar      1 <0>        -0.1314
     23 C19         8.1391    0.1979   -5.2318 C.ar      1 <0>         0.1329
     24 C20         6.8186   -0.2170   -5.0592 C.ar      1 <0>         0.0648
     25 N2          6.4601   -0.9126   -6.2138 N.am      1 <0>        -0.6347
     26 H2          5.5965   -1.3189   -6.3871 H         1 <0>         0.4384
     27 C21         7.5181   -0.9238   -7.0466 C.2       1 <0>         0.6837
     28 O3          7.5409   -1.4494   -8.1439 O.2       1 <0>        -0.5437
     29 N3          8.5430   -0.2545   -6.4858 N.am      1 <0>        -0.6390
     30 H3          9.4176   -0.1196   -6.8830 H         1 <0>         0.4417
     31 O4          2.8033   -1.8916   -2.4837 O.3       1 <0>        -0.5433
     32 H4          1.0039    1.9031    0.0027 H         1 <0>         0.0811
     33 H5         -0.5459    1.8868   -0.8726 H         1 <0>         0.0830
     34 H6         -0.5289    1.8773    0.9072 H         1 <0>         0.1105
     35 H7          0.2319   -0.1594    2.1383 H         1 <0>         0.1113
     36 H8          0.7568   -1.6008    1.2356 H         1 <0>         0.0835
     37 H9          1.7647   -0.1336    1.2338 H         1 <0>         0.0805
     38 H10        -1.9605   -0.1726   -0.8702 H         1 <0>         0.0952
     39 H11        -1.4185   -1.6235    0.0069 H         1 <0>         0.0961
     40 H12        -1.5506   -1.7332    2.4289 H         1 <0>         0.1315
     41 H13        -2.7023   -0.9434    4.4558 H         1 <0>         0.1377
     42 H14        -4.0195    2.5311    2.3445 H         1 <0>         0.1348
     43 H15        -2.8574    1.7389    0.3244 H         1 <0>         0.1270
     44 H16        -5.2295    2.7584    5.5107 H         1 <0>         0.1081
     45 H17        -4.0646    3.3164    4.2859 H         1 <0>         0.0591
     46 H18        -5.5383    2.4533    3.7844 H         1 <0>         0.0601
     47 H19         0.7033   -1.4867   -1.2121 H         1 <0>         0.4317
     48 H20         2.0530    1.1205   -1.2110 H         1 <0>         0.1489
     49 H21         2.5950   -0.3304   -0.3340 H         1 <0>         0.1425
     50 H22         4.2068    1.1525   -2.3912 H         1 <0>         0.0848
     51 H23         4.7722   -0.3649   -1.6524 H         1 <0>         0.0801
     52 H24         6.2627    1.0632   -1.9802 H         1 <0>         0.1355
     53 H25         8.5944    1.7830   -2.2866 H         1 <0>         0.1417
     54 H26         9.7987    1.2348   -4.3591 H         1 <0>         0.1400
     55 H27         3.2576   -2.2830   -1.7250 H         1 <0>         0.3901
     56 H28         0.2017   -0.1436   -2.0240 H         1 <0>         0.4286
@<TRIPOS>BOND
     1    1    2 1
     2    1   32 1
     3    1   33 1
     4    1   34 1
     5    2    3 1
     6    2    4 1
     7    2   13 1
     8    3   35 1
     9    3   36 1
    10    3   37 1
    11    4    5 1
    12    4   38 1
    13    4   39 1
    14    5   10 ar
    15    5    6 ar
    16    6    7 ar
    17    6   40 1
    18    7    8 ar
    19    7   41 1
    20    8    9 ar
    21    8   11 1
    22    9   10 ar
    23    9   42 1
    24   10   43 1
    25   11   12 1
    26   12   44 1
    27   12   45 1
    28   12   46 1
    29   13   14 1
    30   13   47 1
    31   13   56 1
    32   14   15 1
    33   14   48 1
    34   14   49 1
    35   15   16 1
    36   15   17 1
    37   15   31 1
    38   17   18 1
    39   17   50 1
    40   17   51 1
    41   18   19 1
    42   19   24 ar
    43   19   20 ar
    44   20   21 ar
    45   20   52 1
    46   21   22 ar
    47   21   53 1
    48   22   23 ar
    49   22   54 1
    50   23   29 1
    51   23   24 ar
    52   24   25 1
    53   25   26 1
    54   25   27 am
    55   27   28 2
    56   27   29 am
    57   29   30 1
    58   31   55 1
@<TRIPOS>MOLECULE
CHEMBL272234
   50    52     0     0     0
SMALL
USER_CHARGES

@<TRIPOS>ATOM
      1 C1          0.5298    0.2413    0.0632 C.ar      1 <0>        -0.0978
      2 C2          1.5616    1.1610    0.0270 C.ar      1 <0>        -0.0980
      3 C3          2.8740    0.7304    0.0774 C.ar      1 <0>        -0.1297
      4 C4          3.1558   -0.6202    0.1636 C.ar      1 <0>        -0.0994
      5 C5          2.1239   -1.5408    0.1999 C.ar      1 <0>        -0.0301
      6 C6          0.8102   -1.1091    0.1498 C.ar      1 <0>        -0.0921
      7 Cl1         2.4770   -3.2371    0.3076 Cl        1 <0>        -0.0492
      8 C7          3.9980    1.7334    0.0379 C.3       1 <0>         0.1370
      9 H1          3.6408    2.6942    0.4085 H         1 <0>         0.1349
     10 C8          4.4889    1.8929   -1.4024 C.3       1 <0>        -0.0443
     11 N1          5.5845    2.8706   -1.4409 N.4       1 <0>        -0.5046
     12 C9          6.0558    3.0237   -2.8238 C.3       1 <0>        -0.0097
     13 C10         7.1970    4.0421   -2.8640 C.3       1 <0>        -0.0938
     14 C11         7.6804    4.1992   -4.2826 C.ar      1 <0>        -0.1201
     15 C12         8.6908    3.3857   -4.7615 C.ar      1 <0>        -0.0934
     16 C13         9.1358    3.5276   -6.0615 C.ar      1 <0>        -0.1147
     17 C14         8.5680    4.4875   -6.8870 C.ar      1 <0>         0.1342
     18 C15         7.5543    5.3025   -6.4040 C.ar      1 <0>        -0.1165
     19 C16         7.1090    5.1527   -5.1049 C.ar      1 <0>        -0.0946
     20 O1          9.0042    4.6294   -8.1661 O.3       1 <0>        -0.2582
     21 C17         8.5968    3.7182   -9.0818 C.ar      1 <0>         0.2879
     22 C18         9.1092    3.7696  -10.3751 C.ar      1 <0>        -0.1887
     23 C19         8.6964    2.8473  -11.2989 C.ar      1 <0>        -0.0128
     24 C20         7.7632    1.8754  -10.9033 C.ar      1 <0>        -0.2006
     25 C21         7.2921    1.8848   -9.5879 C.ar      1 <0>         0.1575
     26 N2          7.7208    2.7880   -8.7315 N.ar      1 <0>        -0.5424
     27 C22         7.2879    0.8622  -11.8602 C.2       1 <0>         0.5253
     28 O2          7.7062    0.8628  -13.0098 O.co2     1 <0>        -0.6783
     29 O3          6.4748    0.0198  -11.5057 O.co2     1 <0>        -0.6832
     30 O4          5.0738    1.2760    0.8598 O.3       1 <0>        -0.5477
     31 H2         -0.4956    0.5786    0.0283 H         1 <0>         0.1423
     32 H3          1.3419    2.2162   -0.0411 H         1 <0>         0.1351
     33 H4          4.1813   -0.9566    0.2023 H         1 <0>         0.1336
     34 H5          0.0042   -1.8274    0.1780 H         1 <0>         0.1426
     35 H6          4.8461    0.9321   -1.7730 H         1 <0>         0.1384
     36 H7          3.6683    2.2418   -2.0294 H         1 <0>         0.1467
     37 H8          5.2538    3.7600   -1.0979 H         1 <0>         0.4281
     38 H9          6.4130    2.0629   -3.1944 H         1 <0>         0.1355
     39 H10         5.2353    3.3727   -3.4508 H         1 <0>         0.1357
     40 H11         6.8397    5.0029   -2.4934 H         1 <0>         0.0948
     41 H12         8.0175    3.6932   -2.2370 H         1 <0>         0.0949
     42 H13         9.1326    2.6389   -4.1185 H         1 <0>         0.1273
     43 H14         9.9252    2.8922   -6.4350 H         1 <0>         0.1314
     44 H15         7.1109    6.0507   -7.0444 H         1 <0>         0.1340
     45 H16         6.3167    5.7836   -4.7299 H         1 <0>         0.1282
     46 H17         9.8257    4.5304  -10.6475 H         1 <0>         0.1374
     47 H18         9.0794    2.8670  -12.3085 H         1 <0>         0.1496
     48 H19         6.5742    1.1431   -9.2703 H         1 <0>         0.1669
     49 H20         5.4418    0.4241    0.5879 H         1 <0>         0.3895
     50 H21         6.3441    2.5476   -0.8606 H         1 <0>         0.4310
@<TRIPOS>BOND
     1    1    6 ar
     2    1    2 ar
     3    1   31 1
     4    2    3 ar
     5    2   32 1
     6    3    4 ar
     7    3    8 1
     8    4    5 ar
     9    4   33 1
    10    5    6 ar
    11    5    7 1
    12    6   34 1
    13    8    9 1
    14    8   10 1
    15    8   30 1
    16   10   11 1
    17   10   35 1
    18   10   36 1
    19   11   12 1
    20   11   37 1
    21   11   50 1
    22   12   13 1
    23   12   38 1
    24   12   39 1
    25   13   14 1
    26   13   40 1
    27   13   41 1
    28   14   19 ar
    29   14   15 ar
    30   15   16 ar
    31   15   42 1
    32   16   17 ar
    33   16   43 1
    34   17   18 ar
    35   17   20 1
    36   18   19 ar
    37   18   44 1
    38   19   45 1
    39   20   21 1
    40   21   26 ar
    41   21   22 ar
    42   22   23 ar
    43   22   46 1
    44   23   24 ar
    45   23   47 1
    46   24   25 ar
    47   24   27 1
    48   25   26 ar
    49   25   48 1
    50   27   28 2
    51   27   29 1
    52   30   49 1
@<TRIPOS>MOLECULE
CHEMBL13432
   80    83     0     0     0
SMALL
USER_CHARGES

@<TRIPOS>ATOM
      1 C1         -0.0156    1.3090   -0.1016 C.ar      1 <0>        -0.0885
      2 C2          1.1541    2.0432   -0.0910 C.ar      1 <0>        -0.1260
      3 C3          2.3802    1.3926   -0.0350 C.ar      1 <0>         0.1690
      4 C4          2.4251    0.0050    0.0101 C.ar      1 <0>        -0.1499
      5 C5          1.2517   -0.7231   -0.0009 C.ar      1 <0>        -0.0828
      6 C6          0.0328   -0.0722   -0.0567 C.ar      1 <0>        -0.1215
      7 C7         -1.2456   -0.8700   -0.0680 C.3       1 <0>        -0.0991
      8 C8         -1.6371   -1.1855   -1.5131 C.3       1 <0>        -0.0081
      9 N1         -2.8834   -1.9632   -1.5241 N.4       1 <0>        -0.5040
     10 C9         -3.2592   -2.2660   -2.9116 C.3       1 <0>        -0.0418
     11 C10        -4.5572   -3.0760   -2.9231 C.3       1 <0>         0.0857
     12 H1         -5.3506   -2.4976   -2.4497 H         1 <0>         0.1361
     13 C11        -4.9487   -3.3914   -4.3681 C.3       1 <0>         0.0287
     14 O1         -6.2189   -4.0459   -4.3855 O.3       1 <0>        -0.3012
     15 C12        -6.7157   -4.3974   -5.6015 C.ar      1 <0>         0.1086
     16 C13        -5.9918   -4.1225   -6.7522 C.ar      1 <0>        -0.1912
     17 C14        -6.4965   -4.4796   -7.9874 C.ar      1 <0>        -0.1061
     18 C15        -7.7269   -5.1134   -8.0770 C.ar      1 <0>         0.0806
     19 C16        -8.4504   -5.3890   -6.9263 C.ar      1 <0>        -0.1027
     20 C17        -7.9438   -5.0358   -5.6907 C.ar      1 <0>        -0.1260
     21 O2         -8.2242   -5.4641   -9.2931 O.3       1 <0>        -0.4957
     22 O3         -4.3637   -4.2961   -2.2048 O.3       1 <0>        -0.5435
     23 N2          3.5651    2.1320   -0.0245 N.pl3     1 <0>        -1.0613
     24 S1          4.7631    1.7611    1.0569 S.o2      1 <0>         2.6895
     25 O4          5.0214    0.3709    0.9158 O.2       1 <0>        -0.9475
     26 O5          5.7758    2.7445    0.8943 O.2       1 <0>        -0.9403
     27 C18         4.0956    1.9878    2.6718 C.ar      1 <0>        -0.6977
     28 C19         4.0970    3.2445    3.2487 C.ar      1 <0>         0.0043
     29 C20         3.5746    3.4255    4.5144 C.ar      1 <0>        -0.1408
     30 C21         3.0475    2.3439    5.2076 C.ar      1 <0>         0.2314
     31 C22         3.0476    1.0831    4.6255 C.ar      1 <0>        -0.1698
     32 C23         3.5664    0.9097    3.3572 C.ar      1 <0>         0.0036
     33 N3          2.5179    2.5239    6.4904 N.am      1 <0>        -0.6903
     34 C24         3.0777    3.4158    7.3315 C.2       1 <0>         0.7034
     35 O6          3.9872    4.1256    6.9477 O.2       1 <0>        -0.5626
     36 N4          2.6293    3.5208    8.5982 N.am      1 <0>        -0.7328
     37 C25         3.2378    4.4903    9.5126 C.3       1 <0>         0.1613
     38 C26         4.4794    3.8723   10.1587 C.3       1 <0>        -0.1301
     39 C27         5.1149    4.8848   11.1137 C.3       1 <0>        -0.1182
     40 C28         4.1075    5.2614   12.2019 C.3       1 <0>        -0.1238
     41 C29         2.8660    5.8795   11.5557 C.3       1 <0>        -0.1166
     42 C30         2.2304    4.8670   10.6008 C.3       1 <0>        -0.1260
     43 H2         -0.9693    1.8144   -0.1406 H         1 <0>         0.1295
     44 H3          1.1156    3.1219   -0.1265 H         1 <0>         0.1357
     45 H4          3.3767   -0.5040    0.0533 H         1 <0>         0.1626
     46 H5          1.2859   -1.8020    0.0342 H         1 <0>         0.1325
     47 H6         -1.0980   -1.8007    0.4798 H         1 <0>         0.0977
     48 H7         -2.0390   -0.2917    0.4054 H         1 <0>         0.0968
     49 H8         -1.7848   -0.2548   -2.0609 H         1 <0>         0.1349
     50 H9         -0.8437   -1.7638   -1.9865 H         1 <0>         0.1351
     51 H10        -2.7467   -2.8247   -1.0170 H         1 <0>         0.4336
     52 H11        -3.4069   -1.3354   -3.4594 H         1 <0>         0.1473
     53 H12        -2.4658   -2.8444   -3.3850 H         1 <0>         0.1403
     54 H13        -5.0097   -2.4647   -4.9386 H         1 <0>         0.0820
     55 H14        -4.1978   -4.0438   -4.8139 H         1 <0>         0.0770
     56 H15        -5.0337   -3.6290   -6.6824 H         1 <0>         0.1285
     57 H16        -5.9331   -4.2649   -8.8835 H         1 <0>         0.1353
     58 H17        -9.4087   -5.8822   -6.9961 H         1 <0>         0.1418
     59 H18        -8.5055   -5.2539   -4.7944 H         1 <0>         0.1387
     60 H19        -7.9681   -6.3507   -9.5819 H         1 <0>         0.3941
     61 H20        -3.6707   -4.8624   -2.5711 H         1 <0>         0.3903
     62 H21         3.6863    2.8629   -0.6507 H         1 <0>         0.4314
     63 H22         4.5074    4.0853    2.7092 H         1 <0>         0.1434
     64 H23         3.5763    4.4072    4.9646 H         1 <0>         0.1537
     65 H24         2.6387    0.2398    5.1622 H         1 <0>         0.1366
     66 H25         3.5627   -0.0697    2.9022 H         1 <0>         0.1434
     67 H26         1.7478    2.0067    6.7741 H         1 <0>         0.4109
     68 H27         1.9038    2.9546    8.9044 H         1 <0>         0.3981
     69 H28         3.5238    5.3836    8.9572 H         1 <0>         0.0920
     70 H29         4.1934    2.9790   10.7141 H         1 <0>         0.0636
     71 H30         5.1971    3.6040    9.3835 H         1 <0>         0.0677
     72 H31         5.9994    4.4445   11.5740 H         1 <0>         0.0674
     73 H32         5.4008    5.7781   10.5584 H         1 <0>         0.0659
     74 H33         3.8215    4.3682   12.7572 H         1 <0>         0.0633
     75 H34         4.5602    5.9828   12.8822 H         1 <0>         0.0670
     76 H35         2.1483    6.1478   12.3309 H         1 <0>         0.0700
     77 H36         3.1519    6.7728   11.0004 H         1 <0>         0.0668
     78 H37         1.3460    5.3073   10.1404 H         1 <0>         0.0690
     79 H38         1.9445    3.9737   11.1561 H         1 <0>         0.0689
     80 H39        -3.6178   -1.4278   -1.0859 H         1 <0>         0.4309
@<TRIPOS>BOND
     1    1    6 ar
     2    1    2 ar
     3    1   43 1
     4    2    3 ar
     5    2   44 1
     6    3    4 ar
     7    3   23 1
     8    4    5 ar
     9    4   45 1
    10    5    6 ar
    11    5   46 1
    12    6    7 1
    13    7    8 1
    14    7   47 1
    15    7   48 1
    16    8    9 1
    17    8   49 1
    18    8   50 1
    19    9   10 1
    20    9   51 1
    21    9   80 1
    22   10   11 1
    23   10   52 1
    24   10   53 1
    25   11   12 1
    26   11   13 1
    27   11   22 1
    28   13   14 1
    29   13   54 1
    30   13   55 1
    31   14   15 1
    32   15   20 ar
    33   15   16 ar
    34   16   17 ar
    35   16   56 1
    36   17   18 ar
    37   17   57 1
    38   18   19 ar
    39   18   21 1
    40   19   20 ar
    41   19   58 1
    42   20   59 1
    43   21   60 1
    44   22   61 1
    45   23   24 1
    46   23   62 1
    47   24   25 2
    48   24   26 2
    49   24   27 1
    50   27   32 ar
    51   27   28 ar
    52   28   29 ar
    53   28   63 1
    54   29   30 ar
    55   29   64 1
    56   30   31 ar
    57   30   33 1
    58   31   32 ar
    59   31   65 1
    60   32   66 1
    61   33   34 am
    62   33   67 1
    63   34   35 2
    64   34   36 am
    65   36   37 1
    66   36   68 1
    67   37   42 1
    68   37   38 1
    69   37   69 1
    70   38   39 1
    71   38   70 1
    72   38   71 1
    73   39   40 1
    74   39   72 1
    75   39   73 1
    76   40   41 1
    77   40   74 1
    78   40   75 1
    79   41   42 1
    80   41   76 1
    81   41   77 1
    82   42   78 1
    83   42   79 1
@<TRIPOS>MOLECULE
CHEMBL286435
   71    75     0     0     0
SMALL
USER_CHARGES

@<TRIPOS>ATOM
      1 C1          0.1334    1.3200    0.1499 C.ar      1 <0>        -0.1637
      2 C2          1.3055    2.0601    0.1103 C.ar      1 <0>        -0.0542
      3 C3          2.5146    1.3820    0.1179 C.ar      1 <0>        -0.2004
      4 C4          2.5118    0.0005    0.1643 C.ar      1 <0>         0.1172
      5 N1          1.3775   -0.6708    0.2007 N.ar      1 <0>        -0.4748
      6 C5          0.2091   -0.0590    0.1952 C.ar      1 <0>         0.1220
      7 C6          3.8156    2.1414    0.0756 C.3       1 <0>         0.1414
      8 H1          3.6649    3.1430    0.4781 H         1 <0>         0.1342
      9 C7          4.3010    2.2412   -1.3719 C.3       1 <0>        -0.0428
     10 N2          5.5692    2.9814   -1.4132 N.4       1 <0>        -0.5057
     11 C8          6.0353    3.0772   -2.8030 C.3       1 <0>        -0.0087
     12 C9          7.3561    3.8482   -2.8459 C.3       1 <0>        -0.1001
     13 C10         7.8342    3.9465   -4.2717 C.ar      1 <0>        -0.1177
     14 C11         8.6522    2.9616   -4.7944 C.ar      1 <0>        -0.0887
     15 C12         9.0922    3.0486   -6.1006 C.ar      1 <0>        -0.1244
     16 C13         8.7122    4.1269   -6.8895 C.ar      1 <0>         0.1623
     17 C14         7.8904    5.1145   -6.3613 C.ar      1 <0>        -0.1485
     18 C15         7.4494    5.0184   -5.0560 C.ar      1 <0>        -0.0827
     19 N3          9.1557    4.2182   -8.2108 N.pl3     1 <0>        -1.0581
     20 S1          8.0883    4.6000   -9.4180 S.o2      1 <0>         2.6876
     21 O1          7.4211    5.7864   -9.0100 O.2       1 <0>        -0.9391
     22 O2          8.8088    4.5128  -10.6397 O.2       1 <0>        -0.9339
     23 C16         6.8712    3.3266   -9.4592 C.ar      1 <0>        -0.6570
     24 C17         7.1126    2.1653  -10.1708 C.ar      1 <0>        -0.0156
     25 C18         6.1627    1.1646  -10.2065 C.ar      1 <0>        -0.0953
     26 C19         4.9589    1.3258   -9.5239 C.ar      1 <0>         0.0246
     27 C20         4.7209    2.4975   -8.8086 C.ar      1 <0>        -0.0878
     28 C21         5.6801    3.4894   -8.7751 C.ar      1 <0>        -0.0221
     29 C22         3.9334    0.2534   -9.5589 C.2       1 <0>         0.2816
     30 N4          2.7357    0.2928   -8.9481 N.2       1 <0>        -0.5110
     31 C23         2.0799   -0.8082   -9.1809 C.2       1 <0>         0.2995
     32 O3          2.8368   -1.5980   -9.9534 O.3       1 <0>        -0.0782
     33 N5          4.0418   -0.8870  -10.1947 N.2       1 <0>        -0.3059
     34 C24         0.7022   -1.1380   -8.6669 C.3       1 <0>         0.1460
     35 O4         -0.2769   -0.6858   -9.6045 O.3       1 <0>        -0.3029
     36 C25        -1.5809   -0.9072   -9.2902 C.ar      1 <0>         0.1152
     37 C26        -1.9104   -1.5413   -8.1014 C.ar      1 <0>        -0.1789
     38 C27        -3.2359   -1.7657   -7.7833 C.ar      1 <0>        -0.1121
     39 C28        -4.2352   -1.3584   -8.6508 C.ar      1 <0>         0.0715
     40 C29        -3.9077   -0.7258   -9.8380 C.ar      1 <0>        -0.1097
     41 C30        -2.5832   -0.4942  -10.1555 C.ar      1 <0>        -0.1116
     42 F1         -5.5311   -1.5788   -8.3387 F         1 <0>        -0.1352
     43 O5          4.7934    1.4551    0.8597 O.3       1 <0>        -0.5457
     44 H2         -0.8263    1.8152    0.1497 H         1 <0>         0.1473
     45 H3          1.2770    3.1391    0.0741 H         1 <0>         0.1413
     46 H4          3.4495   -0.5353    0.1705 H         1 <0>         0.1526
     47 H5         -0.6991   -0.6427    0.2266 H         1 <0>         0.1670
     48 H6          4.4517    1.2395   -1.7745 H         1 <0>         0.1371
     49 H7          3.5551    2.7647   -1.9700 H         1 <0>         0.1451
     50 H8          5.4297    3.9086   -1.0405 H         1 <0>         0.4303
     51 H9          6.1860    2.0755   -3.2055 H         1 <0>         0.1332
     52 H10         5.2894    3.6007   -3.4011 H         1 <0>         0.1350
     53 H11         7.2054    4.8498   -2.4434 H         1 <0>         0.0987
     54 H12         8.1020    3.3247   -2.2479 H         1 <0>         0.0978
     55 H13         8.9476    2.1237   -4.1804 H         1 <0>         0.1304
     56 H14         9.7313    2.2793   -6.5082 H         1 <0>         0.1362
     57 H15         7.5934    5.9544   -6.9718 H         1 <0>         0.1629
     58 H16         6.8069    5.7836   -4.6460 H         1 <0>         0.1338
     59 H17        10.0889    4.0581   -8.4213 H         1 <0>         0.4337
     60 H18         8.0460    2.0416  -10.6999 H         1 <0>         0.1529
     61 H19         6.3521    0.2585  -10.7627 H         1 <0>         0.1473
     62 H20         3.7893    2.6277   -8.2780 H         1 <0>         0.1500
     63 H21         5.4985    4.3963   -8.2173 H         1 <0>         0.1514
     64 H22         0.6110   -2.2165   -8.5380 H         1 <0>         0.1108
     65 H23         0.5437   -0.6429   -7.7088 H         1 <0>         0.1171
     66 H24        -1.1311   -1.8598   -7.4249 H         1 <0>         0.1387
     67 H25        -3.4928   -2.2594   -6.8577 H         1 <0>         0.1426
     68 H26        -4.6881   -0.4089  -10.5139 H         1 <0>         0.1484
     69 H27        -2.3282    0.0036  -11.0793 H         1 <0>         0.1452
     70 H28         4.9784    0.5551    0.5581 H         1 <0>         0.3897
     71 H29         6.2596    2.4968   -0.8595 H         1 <0>         0.4327
@<TRIPOS>BOND
     1    1    6 ar
     2    1    2 ar
     3    1   44 1
     4    2    3 ar
     5    2   45 1
     6    3    4 ar
     7    3    7 1
     8    4    5 ar
     9    4   46 1
    10    5    6 ar
    11    6   47 1
    12    7    8 1
    13    7    9 1
    14    7   43 1
    15    9   10 1
    16    9   48 1
    17    9   49 1
    18   10   11 1
    19   10   50 1
    20   10   71 1
    21   11   12 1
    22   11   51 1
    23   11   52 1
    24   12   13 1
    25   12   53 1
    26   12   54 1
    27   13   18 ar
    28   13   14 ar
    29   14   15 ar
    30   14   55 1
    31   15   16 ar
    32   15   56 1
    33   16   17 ar
    34   16   19 1
    35   17   18 ar
    36   17   57 1
    37   18   58 1
    38   19   20 1
    39   19   59 1
    40   20   21 2
    41   20   22 2
    42   20   23 1
    43   23   28 ar
    44   23   24 ar
    45   24   25 ar
    46   24   60 1
    47   25   26 ar
    48   25   61 1
    49   26   27 ar
    50   26   29 1
    51   27   28 ar
    52   27   62 1
    53   28   63 1
    54   29   33 2
    55   29   30 1
    56   30   31 2
    57   31   32 1
    58   31   34 1
    59   32   33 1
    60   34   35 1
    61   34   64 1
    62   34   65 1
    63   35   36 1
    64   36   41 ar
    65   36   37 ar
    66   37   38 ar
    67   37   66 1
    68   38   39 ar
    69   38   67 1
    70   39   40 ar
    71   39   42 1
    72   40   41 ar
    73   40   68 1
    74   41   69 1
    75   43   70 1
@<TRIPOS>MOLECULE
CHEMBL286435__1
   70    74     0     0     0
SMALL
USER_CHARGES

@<TRIPOS>ATOM
      1 C1         -0.0167    1.3776    0.0096 C.ar      1 <0>        -0.1653
      2 C2          1.1849    2.0698    0.0019 C.ar      1 <0>        -0.0550
      3 C3          2.3651    1.3426   -0.0133 C.ar      1 <0>        -0.1954
      4 C4          2.3054   -0.0383   -0.0202 C.ar      1 <0>         0.1171
      5 N1          1.1443   -0.6632   -0.0129 N.ar      1 <0>        -0.4762
      6 C5          0.0021   -0.0041    0.0020 C.ar      1 <0>         0.1184
      7 C6          3.6964    2.0488   -0.0227 C.3       1 <0>         0.1403
      8 H1          3.5852    3.0397    0.4177 H         1 <0>         0.1328
      9 C7          4.1918    2.1840   -1.4640 C.3       1 <0>        -0.0425
     10 N2          5.4895    2.8724   -1.4731 N.4       1 <0>        -0.5054
     11 C8          5.9652    3.0022   -2.8569 C.3       1 <0>        -0.0112
     12 C9          7.3168    3.7191   -2.8665 C.3       1 <0>        -0.0715
     13 C10         7.8047    3.8523   -4.2861 C.ar      1 <0>        -0.2345
     14 C11         8.5838    2.8554   -4.8441 C.ar      1 <0>        -0.0637
     15 C12         9.0327    2.9742   -6.1447 C.ar      1 <0>        -0.1799
     16 C13         8.7007    4.0968   -6.8926 C.ar      1 <0>         0.2961
     17 C14         7.9179    5.0963   -6.3289 C.ar      1 <0>        -0.2645
     18 C15         7.4677    4.9685   -5.0296 C.ar      1 <0>        -0.0476
     19 N3          9.1534    4.2204   -8.2081 N.2       1 <0>        -1.0807
     20 S1          8.7565    5.5594   -9.0980 S.o2      1 <0>         2.6060
     21 O1          7.3500    5.5136   -9.2953 O.2       1 <0>        -1.0224
     22 O2          9.4036    6.6637   -8.4807 O.2       1 <0>        -1.0206
     23 C16         9.4944    5.3669  -10.6864 C.ar      1 <0>        -0.5935
     24 C17        10.7740    5.8403  -10.9136 C.ar      1 <0>        -0.0270
     25 C18        11.3569    5.6922  -12.1559 C.ar      1 <0>        -0.0982
     26 C19        10.6539    5.0644  -13.1820 C.ar      1 <0>        -0.0062
     27 C20         9.3652    4.5893  -12.9476 C.ar      1 <0>        -0.0872
     28 C21         8.7942    4.7378  -11.6998 C.ar      1 <0>        -0.0292
     29 C22        11.2753    4.9026  -14.5201 C.2       1 <0>         0.2984
     30 N4         10.6991    4.3218  -15.5877 N.2       1 <0>        -0.5055
     31 C23        11.5150    4.3452  -16.6027 C.2       1 <0>         0.2892
     32 O3         12.6501    4.9449  -16.2213 O.3       1 <0>        -0.0888
     33 N5         12.4744    5.3068  -14.8598 N.2       1 <0>        -0.3159
     34 C24        11.2301    3.7903  -17.9746 C.3       1 <0>         0.1485
     35 O4         10.6365    4.8062  -18.7855 O.3       1 <0>        -0.3028
     36 C25        10.3152    4.4675  -20.0623 C.ar      1 <0>         0.1204
     37 C26        10.5611    3.1822  -20.5223 C.ar      1 <0>        -0.1786
     38 C27        10.2341    2.8393  -21.8200 C.ar      1 <0>        -0.1107
     39 C28         9.6615    3.7780  -22.6614 C.ar      1 <0>         0.0657
     40 C29         9.4160    5.0614  -22.2037 C.ar      1 <0>        -0.1112
     41 C30         9.7359    5.4051  -20.9044 C.ar      1 <0>        -0.1144
     42 F1          9.3426    3.4415  -23.9304 F         1 <0>        -0.1384
     43 O5          4.6418    1.2932    0.7371 O.3       1 <0>        -0.5469
     44 H2         -0.9552    1.9117    0.0259 H         1 <0>         0.1455
     45 H3          1.2009    3.1496    0.0072 H         1 <0>         0.1413
     46 H4          3.2203   -0.6121   -0.0320 H         1 <0>         0.1538
     47 H5         -0.9294   -0.5505    0.0083 H         1 <0>         0.1651
     48 H6          4.3030    1.1932   -1.9044 H         1 <0>         0.1361
     49 H7          3.4707    2.7604   -2.0435 H         1 <0>         0.1429
     50 H8          5.3866    3.7896   -1.0655 H         1 <0>         0.4264
     51 H9          6.0764    2.0113   -3.2973 H         1 <0>         0.1308
     52 H10         5.2440    3.5785   -3.4365 H         1 <0>         0.1305
     53 H11         7.2056    4.7100   -2.4261 H         1 <0>         0.0798
     54 H12         8.0379    3.1428   -2.2869 H         1 <0>         0.0810
     55 H13         8.8419    1.9830   -4.2620 H         1 <0>         0.1050
     56 H14         9.6415    2.1954   -6.5798 H         1 <0>         0.1172
     57 H15         7.6583    5.9706   -6.9075 H         1 <0>         0.1017
     58 H16         6.8554    5.7432   -4.5922 H         1 <0>         0.1021
     59 H17        11.3180    6.3271  -10.1177 H         1 <0>         0.1478
     60 H18        12.3559    6.0625  -12.3324 H         1 <0>         0.1387
     61 H19         8.8158    4.1023  -13.7395 H         1 <0>         0.1450
     62 H20         7.7970    4.3660  -11.5157 H         1 <0>         0.1476
     63 H21        12.1616    3.4578  -18.4327 H         1 <0>         0.1090
     64 H22        10.5453    2.9465  -17.8902 H         1 <0>         0.1187
     65 H23        11.0083    2.4500  -19.8664 H         1 <0>         0.1412
     66 H24        10.4254    1.8387  -22.1784 H         1 <0>         0.1419
     67 H25         8.9696    5.7928  -22.8612 H         1 <0>         0.1458
     68 H26         9.5398    6.4049  -20.5461 H         1 <0>         0.1444
     69 H27         4.7910    0.3986    0.4015 H         1 <0>         0.3893
     70 H28         6.1570    2.3389   -0.9367 H         1 <0>         0.4293
@<TRIPOS>BOND
     1    1    6 ar
     2    1    2 ar
     3    1   44 1
     4    2    3 ar
     5    2   45 1
     6    3    4 ar
     7    3    7 1
     8    4    5 ar
     9    4   46 1
    10    5    6 ar
    11    6   47 1
    12    7    8 1
    13    7    9 1
    14    7   43 1
    15    9   10 1
    16    9   48 1
    17    9   49 1
    18   10   11 1
    19   10   50 1
    20   10   70 1
    21   11   12 1
    22   11   51 1
    23   11   52 1
    24   12   13 1
    25   12   53 1
    26   12   54 1
    27   13   18 ar
    28   13   14 ar
    29   14   15 ar
    30   14   55 1
    31   15   16 ar
    32   15   56 1
    33   16   17 ar
    34   16   19 1
    35   17   18 ar
    36   17   57 1
    37   18   58 1
    38   19   20 1
    39   20   21 2
    40   20   22 2
    41   20   23 1
    42   23   28 ar
    43   23   24 ar
    44   24   25 ar
    45   24   59 1
    46   25   26 ar
    47   25   60 1
    48   26   27 ar
    49   26   29 1
    50   27   28 ar
    51   27   61 1
    52   28   62 1
    53   29   33 2
    54   29   30 1
    55   30   31 2
    56   31   32 1
    57   31   34 1
    58   32   33 1
    59   34   35 1
    60   34   63 1
    61   34   64 1
    62   35   36 1
    63   36   41 ar
    64   36   37 ar
    65   37   38 ar
    66   37   65 1
    67   38   39 ar
    68   38   66 1
    69   39   40 ar
    70   39   42 1
    71   40   41 ar
    72   40   67 1
    73   41   68 1
    74   43   69 1
