@<TRIPOS>MOLECULE
2VT4-P32
 43 44 0 0 0
SMALL
SF_CHARGES


@<TRIPOS>ATOM
1    O        10.1600   22.6880   25.8830  O.3        1 SUBUNIT     -0.5427
2    C         9.4260   21.9870   24.9160  C.3        1 SUBUNIT      0.2215
3    N         5.4040   17.8160   19.6020  N.1        1 SUBUNIT     -0.4694
4    C         8.6230   22.9220   23.9820  C.3        1 SUBUNIT      0.1195
5    N         7.8850   23.9000   24.7780  N.4        1 SUBUNIT     -0.3934
6    C         6.9070   24.6600   23.9740  C.3        1 SUBUNIT      0.2193
7    C         5.6690   23.7730   23.6560  C.3        1 SUBUNIT     -0.1116
8    C         7.5600   25.1830   22.6680  C.3        1 SUBUNIT     -0.1116
9    C        10.4310   21.2650   24.0300  C.3        1 SUBUNIT      0.1825
10   O         9.7850   20.0610   23.6660  O.3        1 SUBUNIT     -0.3874
11   C        10.2800   19.2850   22.6800  C.2        1 SUBUNIT      0.1486
12   C        11.6340   19.0060   22.6280  C.2        1 SUBUNIT     -0.1163
13   C        12.1110   18.1590   21.6350  C.2        1 SUBUNIT     -0.1028
14   C        11.2470   17.5870   20.6990  C.2        1 SUBUNIT     -0.1149
15   C         9.8900   17.8770   20.7610  C.2        1 SUBUNIT      0.0884
16   C         9.4130   18.7300   21.7530  C.2        1 SUBUNIT     -0.0338
17   N         8.8420   17.5010   20.0360  N.pl3      1 SUBUNIT     -0.3270
18   C         7.7750   18.0760   20.5620  C.2        1 SUBUNIT      0.1258
19   C         8.1000   18.8480   21.6060  C.2        1 SUBUNIT     -0.1216
20   C         6.4250   17.9080   20.0960  C.1        1 SUBUNIT      0.3240
21   C         6.4730   25.8790   24.8160  C.3        1 SUBUNIT     -0.1116
22   H        11.0743   22.7478   25.5965  H          1 SUBUNIT      0.3932
23   H         8.7523   21.3370   25.4840  H          1 SUBUNIT      0.0351
24   H         9.3027   23.4570   23.3106  H          1 SUBUNIT      0.0421
25   H         7.9085   22.3397   23.3908  H          1 SUBUNIT      0.0421
26   H         7.3947   23.4125   25.5115  H          1 SUBUNIT      0.3142
27   H         8.5437   24.5455   25.1848  H          1 SUBUNIT      0.3142
28   H         5.9600   22.8810   23.0915  H          1 SUBUNIT      0.0583
29   H         4.9343   24.3239   23.0596  H          1 SUBUNIT      0.0583
30   H         5.1760   23.4429   24.5763  H          1 SUBUNIT      0.0583
31   H         8.4047   25.8439   22.8890  H          1 SUBUNIT      0.0583
32   H         6.8390   25.7476   22.0676  H          1 SUBUNIT      0.0583
33   H         7.9319   24.3545   22.0562  H          1 SUBUNIT      0.0583
34   H        10.6652   21.8476   23.1329  H          1 SUBUNIT      0.0388
35   H        11.3556   21.0420   24.5726  H          1 SUBUNIT      0.0388
36   H        12.3064   19.4398   23.3473  H          1 SUBUNIT      0.1152
37   H        13.1639   17.9419   21.5887  H          1 SUBUNIT      0.1141
38   H        11.6257   16.9284   19.9370  H          1 SUBUNIT      0.1130
39   H         8.8558   16.8909   19.2337  H          1 SUBUNIT      0.3179
40   H         7.4351   19.4442   22.2062  H          1 SUBUNIT      0.1109
41   H         6.0140   25.5618   25.7582  H          1 SUBUNIT      0.0583
42   H         5.7429   26.4898   24.2748  H          1 SUBUNIT      0.0583
43   H         7.3312   26.5150   25.0571  H          1 SUBUNIT      0.0583
@<TRIPOS>BOND
     1    1    2 1
     2    2    4 1
     3    2    9 1
     4    3   20 3
     5    4    5 1
     6    5    6 1
     7    6    7 1
     8    6    8 1
     9    6   21 1
    10    9   10 1
    11   10   11 1
    12   11   12 1
    13   11   16 2
    14   12   13 2
    15   13   14 1
    16   14   15 2
    17   15   16 1
    18   15   17 1
    19   16   19 1
    20   17   18 1
    21   18   19 2
    22   18   20 1
    23    1   22 1
    24    2   23 1
    25    4   24 1
    26    4   25 1
    27    5   26 1
    28    5   27 1
    29    7   28 1
    30    7   29 1
    31    7   30 1
    32    8   31 1
    33    8   32 1
    34    8   33 1
    35    9   34 1
    36    9   35 1
    37   12   36 1
    38   13   37 1
    39   14   38 1
    40   17   39 1
    41   19   40 1
    42   21   41 1
    43   21   42 1
    44   21   43 1
