@<TRIPOS>MOLECULE
CHEMBL491298
   61    63     0     0     0
SMALL
USER_CHARGES

@<TRIPOS>ATOM
      1 C1         -0.0167    1.3794    0.0096 C.ar      1 <0>        -0.1295
      2 C2          1.1667    2.0884    0.0021 C.ar      1 <0>        -0.0641
      3 C3          2.3848    1.4070   -0.0132 C.ar      1 <0>        -0.1123
      4 C4          2.3966    0.0113   -0.0208 C.ar      1 <0>        -0.0823
      5 C5          1.2061   -0.6856   -0.0132 C.ar      1 <0>        -0.1245
      6 C6          0.0021   -0.0041    0.0020 C.ar      1 <0>        -0.0766
      7 C7         -1.2946   -0.7719    0.0103 C.3       1 <0>        -0.0770
      8 C8         -1.7472   -1.0241   -1.4293 C.3       1 <0>        -0.1159
      9 C9         -3.0637   -1.8037   -1.4209 C.3       1 <0>        -0.1183
     10 C10        -3.5163   -2.0558   -2.8605 C.3       1 <0>        -0.1215
     11 C11        -4.8327   -2.8354   -2.8521 C.3       1 <0>        -0.1158
     12 C12        -5.2854   -3.0875   -4.2917 C.3       1 <0>        -0.0349
     13 C13        -6.5820   -3.8554   -4.2834 C.2       1 <0>        -0.1595
     14 C14        -7.8334   -3.3730   -4.2743 C.2       1 <0>        -0.0807
     15 C15        -8.9514   -4.3006   -4.2674 C.2       1 <0>        -0.2950
     16 C16       -10.3555   -4.0268   -4.2579 C.2       1 <0>         0.5747
     17 O1        -10.7604   -2.8769   -4.2545 O.2       1 <0>        -0.5249
     18 N1        -11.2234   -5.0551   -4.2532 N.am      1 <0>        -0.6542
     19 H1        -12.1762   -4.8734   -4.2467 H         1 <0>         0.4147
     20 C17       -10.7892   -6.3478   -4.2577 C.2       1 <0>         0.6488
     21 N2         -9.5029   -6.6292   -4.2665 N.2       1 <0>        -0.5498
     22 C18        -8.5934   -5.6618   -4.2711 C.2       1 <0>         0.1529
     23 S1         -6.8195   -5.6222   -4.2912 S.3       1 <0>         0.1344
     24 N3        -11.7057   -7.3697   -4.2526 N.pl3     1 <0>        -0.8152
     25 C19         3.6569    2.1603   -0.0218 C.2       1 <0>         0.5433
     26 O2          3.6435    3.3757   -0.0155 O.2       1 <0>        -0.5536
     27 N4          4.8314    1.4994   -0.0366 N.am      1 <0>        -0.6753
     28 C20         6.0919    2.2459   -0.0451 C.3       1 <0>         0.0734
     29 H2          5.9814    3.1523    0.5501 H         1 <0>         0.0779
     30 C21         7.2027    1.3778    0.5494 C.3       1 <0>        -0.0824
     31 C22         6.9032    1.1060    2.0250 C.3       1 <0>        -0.1773
     32 C23         7.9973    0.2510    2.6105 C.2       1 <0>         0.4913
     33 O3          8.9302   -0.1078    1.9123 O.co2     1 <0>        -0.6976
     34 O4          7.9496   -0.0820    3.7824 O.co2     1 <0>        -0.7196
     35 C24         6.4472    2.6155   -1.4622 C.2       1 <0>         0.4984
     36 O5          7.0818    3.6322   -1.6861 O.co2     1 <0>        -0.7011
     37 O6          6.1002    1.8979   -2.3847 O.co2     1 <0>        -0.6986
     38 H3         -0.9598    1.9054    0.0260 H         1 <0>         0.1212
     39 H4          1.1508    3.1682    0.0077 H         1 <0>         0.1331
     40 H5          3.3358   -0.5219   -0.0330 H         1 <0>         0.1293
     41 H6          1.2138   -1.7656   -0.0191 H         1 <0>         0.1233
     42 H7         -1.1489   -1.7256    0.5176 H         1 <0>         0.0703
     43 H8         -2.0557   -0.1941    0.5345 H         1 <0>         0.0689
     44 H9         -1.8929   -0.0704   -1.9367 H         1 <0>         0.0644
     45 H10        -0.9861   -1.6019   -1.9536 H         1 <0>         0.0658
     46 H11        -2.9179   -2.7573   -0.9136 H         1 <0>         0.0616
     47 H12        -3.8248   -1.2258   -0.8967 H         1 <0>         0.0606
     48 H13        -3.6620   -1.1021   -3.3679 H         1 <0>         0.0645
     49 H14        -2.7551   -2.6337   -3.3848 H         1 <0>         0.0652
     50 H15        -4.6870   -3.7890   -2.3448 H         1 <0>         0.0656
     51 H16        -5.5939   -2.2575   -2.3279 H         1 <0>         0.0658
     52 H17        -5.4311   -2.1338   -4.7991 H         1 <0>         0.0895
     53 H18        -4.5242   -3.6654   -4.8160 H         1 <0>         0.0823
     54 H19        -8.0079   -2.3072   -4.2718 H         1 <0>         0.1398
     55 H20       -12.6549   -7.1699   -4.2458 H         1 <0>         0.4171
     56 H21       -11.4041   -8.2917   -4.2558 H         1 <0>         0.4314
     57 H22         4.8421    0.5294   -0.0416 H         1 <0>         0.3914
     58 H23         7.2537    0.4325    0.0090 H         1 <0>         0.0603
     59 H24         8.1565    1.8981    0.4621 H         1 <0>         0.0728
     60 H25         6.8522    2.0513    2.5654 H         1 <0>         0.0528
     61 H26         5.9494    0.5857    2.1123 H         1 <0>         0.0511
@<TRIPOS>BOND
     1    1    6 ar
     2    1    2 ar
     3    1   38 1
     4    2    3 ar
     5    2   39 1
     6    3    4 ar
     7    3   25 1
     8    4    5 ar
     9    4   40 1
    10    5    6 ar
    11    5   41 1
    12    6    7 1
    13    7    8 1
    14    7   42 1
    15    7   43 1
    16    8    9 1
    17    8   44 1
    18    8   45 1
    19    9   10 1
    20    9   46 1
    21    9   47 1
    22   10   11 1
    23   10   48 1
    24   10   49 1
    25   11   12 1
    26   11   50 1
    27   11   51 1
    28   12   13 1
    29   12   52 1
    30   12   53 1
    31   13   23 1
    32   13   14 2
    33   14   15 1
    34   14   54 1
    35   15   22 2
    36   15   16 1
    37   16   17 2
    38   16   18 am
    39   18   19 1
    40   18   20 1
    41   20   21 2
    42   20   24 1
    43   21   22 1
    44   22   23 1
    45   24   55 1
    46   24   56 1
    47   25   26 2
    48   25   27 am
    49   27   28 1
    50   27   57 1
    51   28   29 1
    52   28   30 1
    53   28   35 1
    54   30   31 1
    55   30   58 1
    56   30   59 1
    57   31   32 1
    58   31   60 1
    59   31   61 1
    60   32   33 2
    61   32   34 1
    62   35   36 2
    63   35   37 1
@<TRIPOS>MOLECULE
CHEMBL309415
   53    55     0     0     0
SMALL
USER_CHARGES

@<TRIPOS>ATOM
      1 C1         -0.1427    1.8254    0.1447 C.2       1 <0>        -0.0921
      2 C2          1.1168    2.4061    0.1378 C.2       1 <0>        -0.1447
      3 C3          2.1803    1.5612    0.0129 C.2       1 <0>        -0.2231
      4 S1          1.5321    0.0260   -0.0950 S.3       1 <0>         0.2127
      5 C4         -0.1960    0.4490    0.0238 C.2       1 <0>        -0.2085
      6 C5         -1.3672   -0.4322   -0.0002 C.2       1 <0>         0.5963
      7 O1         -2.4853    0.0390    0.0944 O.2       1 <0>        -0.5439
      8 N1         -1.2058   -1.7643   -0.1271 N.am      1 <0>        -0.6736
      9 C6         -2.3763   -2.6449   -0.1512 C.3       1 <0>         0.0730
     10 H1         -3.1988   -2.1423   -0.6600 H         1 <0>         0.0797
     11 C7         -2.0283   -3.9354   -0.8958 C.3       1 <0>        -0.0806
     12 C8         -1.7332   -3.6143   -2.3623 C.3       1 <0>        -0.1788
     13 C9         -1.3905   -4.8853   -3.0958 C.2       1 <0>         0.4915
     14 O2         -1.3830   -5.9495   -2.5007 O.co2     1 <0>        -0.6972
     15 O3         -1.1208   -4.8496   -4.2843 O.co2     1 <0>        -0.7201
     16 C10        -2.7859   -2.9747    1.2611 C.2       1 <0>         0.4961
     17 O4         -2.1582   -2.5166    2.2006 O.co2     1 <0>        -0.6957
     18 O5         -3.7449   -3.6997    1.4642 O.co2     1 <0>        -0.6992
     19 C11         3.6309    1.9430   -0.0188 C.3       1 <0>        -0.0281
     20 C12         3.7644    3.3859    0.4870 C.3       1 <0>        -0.0616
     21 C13         2.7315    4.2578   -0.2326 C.3       1 <0>        -0.1062
     22 C14         1.3265    3.9130    0.2621 C.3       1 <0>        -0.0504
     23 C15         5.1719    3.9060    0.1883 C.3       1 <0>        -0.0990
     24 S2          6.3844    2.9510    1.1415 S.3       1 <0>        -0.0868
     25 C16         7.9403    3.5752    0.5990 C.2       1 <0>        -0.4301
     26 C17         8.7704    4.2672    1.4729 C.2       1 <0>         0.5298
     27 N2          9.9484    4.7329    1.0398 N.2       1 <0>        -0.6257
     28 C18        10.3392    4.5484   -0.2025 C.2       1 <0>         0.6771
     29 N3          9.5645    3.8783   -1.0986 N.am      1 <0>        -0.6604
     30 C19         8.3688    3.3789   -0.7217 C.2       1 <0>         0.5634
     31 O6          7.6699    2.7710   -1.5182 O.2       1 <0>        -0.5246
     32 N4         11.5545    5.0429   -0.6039 N.pl3     1 <0>        -0.8185
     33 N5          8.3807    4.4743    2.7851 N.pl3     1 <0>        -0.8151
     34 H2         -1.0390    2.4196    0.2441 H         1 <0>         0.1408
     35 H3         -0.3146   -2.1398   -0.2025 H         1 <0>         0.3894
     36 H4         -1.1499   -4.3923   -0.4401 H         1 <0>         0.0561
     37 H5         -2.8691   -4.6266   -0.8373 H         1 <0>         0.0804
     38 H6         -2.6116   -3.1573   -2.8181 H         1 <0>         0.0525
     39 H7         -0.8925   -2.9230   -2.4209 H         1 <0>         0.0505
     40 H8          4.2000    1.2743    0.6270 H         1 <0>         0.0871
     41 H9          4.0049    1.8768   -1.0404 H         1 <0>         0.0848
     42 H10         3.5822    3.4149    1.5613 H         1 <0>         0.0821
     43 H11         2.9395    5.3083   -0.0292 H         1 <0>         0.0640
     44 H12         2.7914    4.0790   -1.3061 H         1 <0>         0.0668
     45 H13         0.5869    4.4359   -0.3443 H         1 <0>         0.0727
     46 H14         1.2234    4.2113    1.3054 H         1 <0>         0.0712
     47 H15         5.3806    3.7987   -0.8761 H         1 <0>         0.0866
     48 H16         5.2375    4.9577    0.4672 H         1 <0>         0.0739
     49 H17        12.1150    5.5225    0.0260 H         1 <0>         0.4286
     50 H18        11.8531    4.9130   -1.5176 H         1 <0>         0.4168
     51 H19         7.5672    4.0655    3.1197 H         1 <0>         0.4239
     52 H20         8.9212    5.0283    3.3699 H         1 <0>         0.4049
     53 H21         9.8744    3.7557   -2.0096 H         1 <0>         0.4114
@<TRIPOS>BOND
     1    1    5 2
     2    1    2 1
     3    1   34 1
     4    2   22 1
     5    2    3 2
     6    3    4 1
     7    3   19 1
     8    4    5 1
     9    5    6 1
    10    6    7 2
    11    6    8 am
    12    8    9 1
    13    8   35 1
    14    9   10 1
    15    9   11 1
    16    9   16 1
    17   11   12 1
    18   11   36 1
    19   11   37 1
    20   12   13 1
    21   12   38 1
    22   12   39 1
    23   13   14 2
    24   13   15 1
    25   16   17 2
    26   16   18 1
    27   19   20 1
    28   19   40 1
    29   19   41 1
    30   20   21 1
    31   20   23 1
    32   20   42 1
    33   21   22 1
    34   21   43 1
    35   21   44 1
    36   22   45 1
    37   22   46 1
    38   23   24 1
    39   23   47 1
    40   23   48 1
    41   24   25 1
    42   25   30 1
    43   25   26 2
    44   26   27 1
    45   26   33 1
    46   27   28 2
    47   28   29 1
    48   28   32 1
    49   29   30 am
    50   29   53 1
    51   30   31 2
    52   32   49 1
    53   32   50 1
    54   33   51 1
    55   33   52 1
@<TRIPOS>MOLECULE
CHEMBL309415__1
   53    55     0     0     0
SMALL
USER_CHARGES

@<TRIPOS>ATOM
      1 C1          0.1023    1.1314    0.3289 C.2       1 <0>        -0.0926
      2 C2          1.3147    1.8040    0.2918 C.2       1 <0>        -0.1404
      3 C3          2.4348    1.0400    0.1427 C.2       1 <0>        -0.2265
      4 S1          1.9002   -0.5395    0.0538 S.3       1 <0>         0.2098
      5 C4          0.1486   -0.2456    0.2117 C.2       1 <0>        -0.2057
      6 C5         -0.9541   -1.2114    0.2164 C.2       1 <0>         0.5958
      7 O1         -2.1016   -0.8241    0.3363 O.2       1 <0>        -0.5429
      8 N1         -0.6972   -2.5282    0.0880 N.am      1 <0>        -0.6734
      9 C6         -1.7993   -3.4934    0.0928 C.3       1 <0>         0.0728
     10 H1         -2.6684   -3.0549   -0.3976 H         1 <0>         0.0799
     11 C7         -1.3738   -4.7570   -0.6576 C.3       1 <0>        -0.0805
     12 C8         -1.1374   -4.4198   -2.1312 C.3       1 <0>        -0.1789
     13 C9         -0.7183   -5.6644   -2.8703 C.2       1 <0>         0.4915
     14 O2         -0.6179   -6.7230   -2.2738 O.co2     1 <0>        -0.6973
     15 O3         -0.4795   -5.6128   -4.0648 O.co2     1 <0>        -0.7198
     16 C10        -2.1504   -3.8479    1.5148 C.2       1 <0>         0.4961
     17 O4         -1.5370   -3.3412    2.4386 O.co2     1 <0>        -0.6961
     18 O5         -3.0480   -4.6413    1.7414 O.co2     1 <0>        -0.6988
     19 C11         3.8516    1.5286    0.0729 C.3       1 <0>        -0.0280
     20 C12         3.8314    3.0417   -0.1838 C.3       1 <0>        -0.0633
     21 C13         2.8480    3.6939    0.7921 C.3       1 <0>        -0.1060
     22 C14         1.4149    3.3225    0.4105 C.3       1 <0>        -0.0519
     23 C15         5.2314    3.6181    0.0367 C.3       1 <0>        -0.0983
     24 S2          6.3676    2.9378   -1.2030 S.3       1 <0>        -0.0860
     25 C16         7.8837    3.7833   -0.9011 C.2       1 <0>        -0.4328
     26 C17         9.0022    3.0936   -0.4482 C.2       1 <0>         0.5319
     27 N2         10.1442    3.7557   -0.2252 N.2       1 <0>        -0.6239
     28 C18        10.2307    5.0525   -0.4267 C.2       1 <0>         0.6765
     29 N3          9.1656    5.7752   -0.8690 N.am      1 <0>        -0.6610
     30 C19         7.9882    5.1647   -1.1183 C.2       1 <0>         0.5651
     31 O6          7.0289    5.8050   -1.5212 O.2       1 <0>        -0.5316
     32 N4         11.4210    5.6910   -0.1852 N.pl3     1 <0>        -0.8187
     33 N5          8.9356    1.7284   -0.2284 N.pl3     1 <0>        -0.8121
     34 H2         -0.8331    1.6578    0.4483 H         1 <0>         0.1415
     35 H3          0.2174   -2.8368   -0.0075 H         1 <0>         0.3892
     36 H4         -0.4535   -5.1459   -0.2217 H         1 <0>         0.0559
     37 H5         -2.1593   -5.5085   -0.5784 H         1 <0>         0.0805
     38 H6         -2.0576   -4.0309   -2.5671 H         1 <0>         0.0527
     39 H7         -0.3518   -3.6683   -2.2104 H         1 <0>         0.0505
     40 H8          4.3567    1.3239    1.0169 H         1 <0>         0.0813
     41 H9          4.3729    1.0257   -0.7416 H         1 <0>         0.0849
     42 H10         3.5117    3.2343   -1.2080 H         1 <0>         0.0861
     43 H11         3.0557    3.3441    1.8034 H         1 <0>         0.0655
     44 H12         2.9641    4.7770    0.7536 H         1 <0>         0.0657
     45 H13         1.1611    3.7811   -0.5452 H         1 <0>         0.0724
     46 H14         0.7286    3.6748    1.1806 H         1 <0>         0.0733
     47 H15         5.1967    4.7034   -0.0590 H         1 <0>         0.0860
     48 H16         5.5807    3.3523    1.0344 H         1 <0>         0.0743
     49 H17        12.1868    5.1863    0.1306 H         1 <0>         0.4291
     50 H18        11.4966    6.6471   -0.3302 H         1 <0>         0.4162
     51 H19         8.1347    1.2369   -0.4691 H         1 <0>         0.4253
     52 H20         9.6897    1.2633    0.1664 H         1 <0>         0.4064
     53 H21         9.2542    6.7309   -1.0094 H         1 <0>         0.4102
@<TRIPOS>BOND
     1    1    5 2
     2    1    2 1
     3    1   34 1
     4    2   22 1
     5    2    3 2
     6    3    4 1
     7    3   19 1
     8    4    5 1
     9    5    6 1
    10    6    7 2
    11    6    8 am
    12    8    9 1
    13    8   35 1
    14    9   10 1
    15    9   11 1
    16    9   16 1
    17   11   12 1
    18   11   36 1
    19   11   37 1
    20   12   13 1
    21   12   38 1
    22   12   39 1
    23   13   14 2
    24   13   15 1
    25   16   17 2
    26   16   18 1
    27   19   20 1
    28   19   40 1
    29   19   41 1
    30   20   21 1
    31   20   23 1
    32   20   42 1
    33   21   22 1
    34   21   43 1
    35   21   44 1
    36   22   45 1
    37   22   46 1
    38   23   24 1
    39   23   47 1
    40   23   48 1
    41   24   25 1
    42   25   30 1
    43   25   26 2
    44   26   27 1
    45   26   33 1
    46   27   28 2
    47   28   29 1
    48   28   32 1
    49   29   30 am
    50   29   53 1
    51   30   31 2
    52   32   49 1
    53   32   50 1
    54   33   51 1
    55   33   52 1
@<TRIPOS>MOLECULE
CHEMBL167304
   57    59     0     0     0
SMALL
USER_CHARGES

@<TRIPOS>ATOM
      1 C1         -0.0187    1.5258    0.0104 C.3       1 <0>        -0.1372
      2 C2          0.0021   -0.0041    0.0020 C.3       1 <0>         0.0917
      3 C3          0.7421   -0.5109    1.2415 C.3       1 <0>        -0.0669
      4 C4          0.0259   -0.0175    2.5003 C.3       1 <0>        -0.1837
      5 C5          0.7548   -0.5167    3.7212 C.2       1 <0>         0.4915
      6 O1          1.7544   -1.2035    3.5961 O.co2     1 <0>        -0.7172
      7 O2          0.3449   -0.2338    4.8341 O.co2     1 <0>        -0.7169
      8 C6         -1.4117   -0.5257    0.0127 C.2       1 <0>         0.5072
      9 O3         -1.8097   -1.2271   -0.9017 O.co2     1 <0>        -0.6915
     10 O4         -2.1576   -0.2463    0.9358 O.co2     1 <0>        -0.6795
     11 N1          0.6878   -0.4765   -1.2033 N.am      1 <0>        -0.6820
     12 C7          0.2113   -0.1507   -2.4212 C.2       1 <0>         0.5921
     13 O5         -0.7886    0.5360   -2.5196 O.2       1 <0>        -0.4984
     14 C8          0.8977   -0.6236   -3.6278 C.2       1 <0>        -0.0208
     15 C9          0.5268   -0.3637   -4.9159 C.2       1 <0>        -0.1527
     16 C10         1.4606   -1.0078   -5.7426 C.2       1 <0>        -0.2063
     17 C11         2.3493   -1.6249   -4.9330 C.2       1 <0>        -0.0252
     18 O6          2.0097   -1.3869   -3.6596 O.3       1 <0>        -0.1592
     19 C12         3.5307   -2.4423   -5.3882 C.3       1 <0>        -0.0369
     20 C13         4.7519   -1.5331   -5.5400 C.3       1 <0>        -0.1142
     21 C14         5.9513   -2.3630   -6.0021 C.3       1 <0>        -0.1053
     22 C15         7.1983   -1.4787   -6.0502 C.3       1 <0>        -0.0590
     23 C16         8.3305   -2.2080   -6.7182 C.ar      1 <0>        -0.3043
     24 C17         9.6428   -1.7903   -6.5064 C.ar      1 <0>         0.5404
     25 N2         10.6338   -2.4447   -7.1074 N.ar      1 <0>        -0.5913
     26 C18        10.3841   -3.4782   -7.8973 C.ar      1 <0>         0.6793
     27 N3          9.1491   -3.9018   -8.1200 N.ar      1 <0>        -0.6010
     28 C19         8.1094   -3.2955   -7.5493 C.ar      1 <0>         0.5020
     29 N4          6.8244   -3.7597   -7.7879 N.pl3     1 <0>        -0.6960
     30 C20         5.6822   -2.9171   -7.4073 C.3       1 <0>         0.1120
     31 N5         11.4410   -4.1321   -8.5059 N.pl3     1 <0>        -0.7995
     32 N6          9.9122   -0.7090   -5.6820 N.pl3     1 <0>        -0.7861
     33 H1          1.0039    1.9031    0.0027 H         1 <0>         0.0333
     34 H2         -0.5459    1.8868   -0.8726 H         1 <0>         0.0600
     35 H3         -0.5289    1.8773    0.9072 H         1 <0>         0.0717
     36 H4          0.7568   -1.6008    1.2356 H         1 <0>         0.0515
     37 H5          1.7647   -0.1336    1.2338 H         1 <0>         0.0443
     38 H6          0.0111    1.0724    2.5063 H         1 <0>         0.0506
     39 H7         -0.9967   -0.3948    2.5081 H         1 <0>         0.1037
     40 H8          1.4848   -1.0239   -1.1249 H         1 <0>         0.3875
     41 H9         -0.3208    0.2238   -5.2366 H         1 <0>         0.1575
     42 H10         1.4673   -1.0101   -6.8226 H         1 <0>         0.1471
     43 H11         3.7432   -3.2160   -4.6504 H         1 <0>         0.0862
     44 H12         3.3028   -2.9077   -6.3472 H         1 <0>         0.0894
     45 H13         4.5394   -0.7595   -6.2779 H         1 <0>         0.0791
     46 H14         4.9798   -1.0678   -4.5811 H         1 <0>         0.0863
     47 H15         6.1131   -3.1884   -5.3089 H         1 <0>         0.0942
     48 H16         6.9749   -0.5700   -6.6093 H         1 <0>         0.0919
     49 H17         7.4906   -1.2116   -5.0347 H         1 <0>         0.0928
     50 H18         6.6819   -4.6264   -8.1997 H         1 <0>         0.4208
     51 H19         4.7701   -3.5138   -7.3999 H         1 <0>         0.1155
     52 H20         5.5796   -2.0943   -8.1147 H         1 <0>         0.0922
     53 H21        12.3505   -3.8321   -8.3517 H         1 <0>         0.4430
     54 H22        11.2723   -4.8905   -9.0868 H         1 <0>         0.4262
     55 H23         9.1845   -0.2370   -5.2478 H         1 <0>         0.4311
     56 H24        10.8285   -0.4242   -5.5395 H         1 <0>         0.4246
     57 H25         9.0003   -4.6616   -8.7044 H         1 <0>         0.4340
@<TRIPOS>BOND
     1    1    2 1
     2    1   33 1
     3    1   34 1
     4    1   35 1
     5    2    3 1
     6    2    8 1
     7    2   11 1
     8    3    4 1
     9    3   36 1
    10    3   37 1
    11    4    5 1
    12    4   38 1
    13    4   39 1
    14    5    6 2
    15    5    7 1
    16    8    9 2
    17    8   10 1
    18   11   12 am
    19   11   40 1
    20   12   13 2
    21   12   14 1
    22   14   18 1
    23   14   15 2
    24   15   16 1
    25   15   41 1
    26   16   17 2
    27   16   42 1
    28   17   18 1
    29   17   19 1
    30   19   20 1
    31   19   43 1
    32   19   44 1
    33   20   21 1
    34   20   45 1
    35   20   46 1
    36   21   30 1
    37   21   22 1
    38   21   47 1
    39   22   23 1
    40   22   48 1
    41   22   49 1
    42   23   28 ar
    43   23   24 ar
    44   24   25 ar
    45   24   32 1
    46   25   26 ar
    47   26   27 ar
    48   26   31 1
    49   27   28 ar
    50   27   57 1
    51   28   29 1
    52   29   30 1
    53   29   50 1
    54   30   51 1
    55   30   52 1
    56   31   53 1
    57   31   54 1
    58   32   55 1
    59   32   56 1
@<TRIPOS>MOLECULE
CHEMBL167304__1
   56    58     0     0     0
SMALL
USER_CHARGES

@<TRIPOS>ATOM
      1 C1         -0.0187    1.5258    0.0104 C.3       1 <0>        -0.1370
      2 C2          0.0021   -0.0041    0.0020 C.3       1 <0>         0.0924
      3 C3          0.7421   -0.5109    1.2415 C.3       1 <0>        -0.0681
      4 C4          0.0259   -0.0175    2.5003 C.3       1 <0>        -0.1826
      5 C5          0.7548   -0.5167    3.7212 C.2       1 <0>         0.4914
      6 O1          1.7544   -1.2035    3.5961 O.co2     1 <0>        -0.7151
      7 O2          0.3449   -0.2338    4.8341 O.co2     1 <0>        -0.7201
      8 C6         -1.4117   -0.5257    0.0127 C.2       1 <0>         0.5080
      9 O3         -1.8097   -1.2271   -0.9017 O.co2     1 <0>        -0.6902
     10 O4         -2.1576   -0.2463    0.9358 O.co2     1 <0>        -0.6834
     11 N1          0.6878   -0.4765   -1.2033 N.am      1 <0>        -0.6841
     12 C7          0.2113   -0.1507   -2.4212 C.2       1 <0>         0.5963
     13 O5         -0.7886    0.5360   -2.5196 O.2       1 <0>        -0.5041
     14 C8          0.8977   -0.6236   -3.6278 C.2       1 <0>        -0.0327
     15 C9          0.5268   -0.3637   -4.9159 C.2       1 <0>        -0.1494
     16 C10         1.4606   -1.0078   -5.7426 C.2       1 <0>        -0.2143
     17 C11         2.3493   -1.6249   -4.9330 C.2       1 <0>        -0.0093
     18 O6          2.0097   -1.3869   -3.6596 O.3       1 <0>        -0.1594
     19 C12         3.5307   -2.4423   -5.3882 C.3       1 <0>        -0.0396
     20 C13         4.7519   -1.5331   -5.5400 C.3       1 <0>        -0.1106
     21 C14         5.9513   -2.3630   -6.0021 C.3       1 <0>        -0.1023
     22 C15         7.1983   -1.4787   -6.0502 C.3       1 <0>        -0.0417
     23 C16         8.3305   -2.2080   -6.7182 C.ar      1 <0>        -0.3600
     24 C17         9.6428   -1.7903   -6.5064 C.ar      1 <0>         0.4982
     25 N2         10.6338   -2.4447   -7.1074 N.ar      1 <0>        -0.6557
     26 C18        10.3841   -3.4782   -7.8973 C.ar      1 <0>         0.6285
     27 N3          9.1491   -3.9018   -8.1200 N.ar      1 <0>        -0.6537
     28 C19         8.1094   -3.2955   -7.5493 C.ar      1 <0>         0.4985
     29 N4          6.8244   -3.7597   -7.7879 N.pl3     1 <0>        -0.7159
     30 C20         5.6822   -2.9171   -7.4073 C.3       1 <0>         0.1273
     31 N5         11.4410   -4.1321   -8.5059 N.pl3     1 <0>        -0.8258
     32 N6          9.9122   -0.7090   -5.6820 N.pl3     1 <0>        -0.8366
     33 H1          1.0039    1.9031    0.0027 H         1 <0>         0.0336
     34 H2         -0.5459    1.8868   -0.8726 H         1 <0>         0.0601
     35 H3         -0.5289    1.8773    0.9072 H         1 <0>         0.0700
     36 H4          0.7568   -1.6008    1.2356 H         1 <0>         0.0518
     37 H5          1.7647   -0.1336    1.2338 H         1 <0>         0.0450
     38 H6          0.0111    1.0724    2.5063 H         1 <0>         0.0499
     39 H7         -0.9967   -0.3948    2.5081 H         1 <0>         0.1032
     40 H8          1.4848   -1.0239   -1.1249 H         1 <0>         0.3889
     41 H9         -0.3208    0.2238   -5.2366 H         1 <0>         0.1551
     42 H10         1.4673   -1.0101   -6.8226 H         1 <0>         0.1474
     43 H11         3.7432   -3.2160   -4.6504 H         1 <0>         0.0846
     44 H12         3.3028   -2.9077   -6.3472 H         1 <0>         0.0918
     45 H13         4.5394   -0.7595   -6.2779 H         1 <0>         0.0726
     46 H14         4.9798   -1.0678   -4.5811 H         1 <0>         0.0772
     47 H15         6.1131   -3.1884   -5.3089 H         1 <0>         0.0834
     48 H16         6.9749   -0.5700   -6.6093 H         1 <0>         0.0654
     49 H17         7.4906   -1.2116   -5.0347 H         1 <0>         0.0682
     50 H18         6.6819   -4.6264   -8.1997 H         1 <0>         0.4074
     51 H19         4.7701   -3.5138   -7.3999 H         1 <0>         0.0905
     52 H20         5.5796   -2.0943   -8.1147 H         1 <0>         0.0664
     53 H21        12.3505   -3.8321   -8.3517 H         1 <0>         0.4109
     54 H22        11.2723   -4.8905   -9.0868 H         1 <0>         0.4113
     55 H23         9.1845   -0.2370   -5.2478 H         1 <0>         0.4123
     56 H24        10.8285   -0.4242   -5.5395 H         1 <0>         0.4042
@<TRIPOS>BOND
     1    1    2 1
     2    1   33 1
     3    1   34 1
     4    1   35 1
     5    2    3 1
     6    2    8 1
     7    2   11 1
     8    3    4 1
     9    3   36 1
    10    3   37 1
    11    4    5 1
    12    4   38 1
    13    4   39 1
    14    5    6 2
    15    5    7 1
    16    8    9 2
    17    8   10 1
    18   11   12 am
    19   11   40 1
    20   12   13 2
    21   12   14 1
    22   14   18 1
    23   14   15 2
    24   15   16 1
    25   15   41 1
    26   16   17 2
    27   16   42 1
    28   17   18 1
    29   17   19 1
    30   19   20 1
    31   19   43 1
    32   19   44 1
    33   20   21 1
    34   20   45 1
    35   20   46 1
    36   21   30 1
    37   21   22 1
    38   21   47 1
    39   22   23 1
    40   22   48 1
    41   22   49 1
    42   23   28 ar
    43   23   24 ar
    44   24   25 ar
    45   24   32 1
    46   25   26 ar
    47   26   27 ar
    48   26   31 1
    49   27   28 ar
    50   28   29 1
    51   29   30 1
    52   29   50 1
    53   30   51 1
    54   30   52 1
    55   31   53 1
    56   31   54 1
    57   32   55 1
    58   32   56 1
@<TRIPOS>MOLECULE
CHEMBL167304__2
   57    59     0     0     0
SMALL
USER_CHARGES

@<TRIPOS>ATOM
      1 C1         -0.0187    1.5258    0.0104 C.3       1 <0>        -0.1373
      2 C2          0.0021   -0.0041    0.0020 C.3       1 <0>         0.0917
      3 C3          0.7421   -0.5109    1.2415 C.3       1 <0>        -0.0664
      4 C4          0.0259   -0.0175    2.5003 C.3       1 <0>        -0.1839
      5 C5          0.7548   -0.5167    3.7212 C.2       1 <0>         0.4916
      6 O1          1.7544   -1.2035    3.5961 O.co2     1 <0>        -0.7178
      7 O2          0.3449   -0.2338    4.8341 O.co2     1 <0>        -0.7166
      8 C6         -1.4117   -0.5257    0.0127 C.2       1 <0>         0.5071
      9 O3         -1.8097   -1.2271   -0.9017 O.co2     1 <0>        -0.6914
     10 O4         -2.1576   -0.2463    0.9358 O.co2     1 <0>        -0.6795
     11 N1          0.6878   -0.4765   -1.2033 N.am      1 <0>        -0.6823
     12 C7          0.2113   -0.1507   -2.4212 C.2       1 <0>         0.5923
     13 O5         -0.7886    0.5360   -2.5196 O.2       1 <0>        -0.4979
     14 C8          0.8977   -0.6236   -3.6278 C.2       1 <0>        -0.0215
     15 C9          0.5268   -0.3637   -4.9159 C.2       1 <0>        -0.1520
     16 C10         1.4606   -1.0078   -5.7426 C.2       1 <0>        -0.2048
     17 C11         2.3493   -1.6249   -4.9330 C.2       1 <0>        -0.0264
     18 O6          2.0097   -1.3869   -3.6596 O.3       1 <0>        -0.1603
     19 C12         3.5307   -2.4423   -5.3882 C.3       1 <0>        -0.0361
     20 C13         4.7519   -1.5331   -5.5400 C.3       1 <0>        -0.1150
     21 C14         5.9513   -2.3630   -6.0021 C.3       1 <0>        -0.1027
     22 C15         7.1441   -1.4407   -6.2591 C.3       1 <0>        -0.0582
     23 C16         8.3903   -2.2498   -6.4880 C.ar      1 <0>        -0.3065
     24 C17         9.4777   -1.6748   -7.1424 C.ar      1 <0>         0.5400
     25 N2         10.5746   -2.4035   -7.3350 N.ar      1 <0>        -0.5924
     26 C18        10.6394   -3.6575   -6.9133 C.ar      1 <0>         0.6798
     27 N3          9.6241   -4.2354   -6.2892 N.ar      1 <0>        -0.6008
     28 C19         8.4949   -3.5657   -6.0638 C.ar      1 <0>         0.5036
     29 N4          7.4400   -4.1910   -5.4158 N.pl3     1 <0>        -0.6931
     30 C20         6.3306   -3.3710   -4.9094 C.3       1 <0>         0.1079
     31 N5         11.7978   -4.3827   -7.1307 N.pl3     1 <0>        -0.7993
     32 N6          9.4178   -0.3631   -7.5866 N.pl3     1 <0>        -0.7888
     33 H1          1.0039    1.9031    0.0027 H         1 <0>         0.0332
     34 H2         -0.5459    1.8868   -0.8726 H         1 <0>         0.0602
     35 H3         -0.5289    1.8773    0.9072 H         1 <0>         0.0717
     36 H4          0.7568   -1.6008    1.2356 H         1 <0>         0.0513
     37 H5          1.7647   -0.1336    1.2338 H         1 <0>         0.0440
     38 H6          0.0111    1.0724    2.5063 H         1 <0>         0.0507
     39 H7         -0.9967   -0.3948    2.5081 H         1 <0>         0.1038
     40 H8          1.4848   -1.0239   -1.1249 H         1 <0>         0.3870
     41 H9         -0.3208    0.2238   -5.2366 H         1 <0>         0.1575
     42 H10         1.4673   -1.0101   -6.8226 H         1 <0>         0.1477
     43 H11         3.7432   -3.2160   -4.6504 H         1 <0>         0.0822
     44 H12         3.3028   -2.9077   -6.3472 H         1 <0>         0.0932
     45 H13         4.5394   -0.7595   -6.2779 H         1 <0>         0.0840
     46 H14         4.9798   -1.0678   -4.5811 H         1 <0>         0.0816
     47 H15         5.6955   -2.8961   -6.9178 H         1 <0>         0.0916
     48 H16         6.9443   -0.8292   -7.1390 H         1 <0>         0.0901
     49 H17         7.2896   -0.7904   -5.3966 H         1 <0>         0.0933
     50 H18         7.4348   -5.1538   -5.2985 H         1 <0>         0.4217
     51 H19         6.6448   -2.8399   -4.0109 H         1 <0>         0.0963
     52 H20         5.4755   -4.0076   -4.6821 H         1 <0>         0.1179
     53 H21        12.5488   -3.9719   -7.5867 H         1 <0>         0.4427
     54 H22        11.8587   -5.3020   -6.8270 H         1 <0>         0.4267
     55 H23         8.6147    0.1615   -7.4428 H         1 <0>         0.4299
     56 H24        10.1790    0.0301   -8.0414 H         1 <0>         0.4237
     57 H25         9.7037   -5.1556   -5.9930 H         1 <0>         0.4348
@<TRIPOS>BOND
     1    1    2 1
     2    1   33 1
     3    1   34 1
     4    1   35 1
     5    2    3 1
     6    2    8 1
     7    2   11 1
     8    3    4 1
     9    3   36 1
    10    3   37 1
    11    4    5 1
    12    4   38 1
    13    4   39 1
    14    5    6 2
    15    5    7 1
    16    8    9 2
    17    8   10 1
    18   11   12 am
    19   11   40 1
    20   12   13 2
    21   12   14 1
    22   14   18 1
    23   14   15 2
    24   15   16 1
    25   15   41 1
    26   16   17 2
    27   16   42 1
    28   17   18 1
    29   17   19 1
    30   19   20 1
    31   19   43 1
    32   19   44 1
    33   20   21 1
    34   20   45 1
    35   20   46 1
    36   21   30 1
    37   21   22 1
    38   21   47 1
    39   22   23 1
    40   22   48 1
    41   22   49 1
    42   23   28 ar
    43   23   24 ar
    44   24   25 ar
    45   24   32 1
    46   25   26 ar
    47   26   27 ar
    48   26   31 1
    49   27   28 ar
    50   27   57 1
    51   28   29 1
    52   29   30 1
    53   29   50 1
    54   30   51 1
    55   30   52 1
    56   31   53 1
    57   31   54 1
    58   32   55 1
    59   32   56 1
@<TRIPOS>MOLECULE
CHEMBL167304__3
   56    58     0     0     0
SMALL
USER_CHARGES

@<TRIPOS>ATOM
      1 C1         -0.0187    1.5258    0.0104 C.3       1 <0>        -0.1370
      2 C2          0.0021   -0.0041    0.0020 C.3       1 <0>         0.0924
      3 C3          0.7421   -0.5109    1.2415 C.3       1 <0>        -0.0679
      4 C4          0.0259   -0.0175    2.5003 C.3       1 <0>        -0.1827
      5 C5          0.7548   -0.5167    3.7212 C.2       1 <0>         0.4913
      6 O1          1.7544   -1.2035    3.5961 O.co2     1 <0>        -0.7151
      7 O2          0.3449   -0.2338    4.8341 O.co2     1 <0>        -0.7200
      8 C6         -1.4117   -0.5257    0.0127 C.2       1 <0>         0.5080
      9 O3         -1.8097   -1.2271   -0.9017 O.co2     1 <0>        -0.6903
     10 O4         -2.1576   -0.2463    0.9358 O.co2     1 <0>        -0.6834
     11 N1          0.6878   -0.4765   -1.2033 N.am      1 <0>        -0.6840
     12 C7          0.2113   -0.1507   -2.4212 C.2       1 <0>         0.5963
     13 O5         -0.7886    0.5360   -2.5196 O.2       1 <0>        -0.5040
     14 C8          0.8977   -0.6236   -3.6278 C.2       1 <0>        -0.0326
     15 C9          0.5268   -0.3637   -4.9159 C.2       1 <0>        -0.1494
     16 C10         1.4606   -1.0078   -5.7426 C.2       1 <0>        -0.2141
     17 C11         2.3493   -1.6249   -4.9330 C.2       1 <0>        -0.0096
     18 O6          2.0097   -1.3869   -3.6596 O.3       1 <0>        -0.1594
     19 C12         3.5307   -2.4423   -5.3882 C.3       1 <0>        -0.0393
     20 C13         4.7519   -1.5331   -5.5400 C.3       1 <0>        -0.1113
     21 C14         5.9513   -2.3630   -6.0021 C.3       1 <0>        -0.0997
     22 C15         7.1441   -1.4407   -6.2591 C.3       1 <0>        -0.0411
     23 C16         8.3903   -2.2498   -6.4880 C.ar      1 <0>        -0.3609
     24 C17         9.4777   -1.6748   -7.1424 C.ar      1 <0>         0.4972
     25 N2         10.5746   -2.4035   -7.3350 N.ar      1 <0>        -0.6567
     26 C18        10.6394   -3.6575   -6.9133 C.ar      1 <0>         0.6286
     27 N3          9.6241   -4.2354   -6.2892 N.ar      1 <0>        -0.6527
     28 C19         8.4949   -3.5657   -6.0638 C.ar      1 <0>         0.4996
     29 N4          7.4400   -4.1910   -5.4158 N.pl3     1 <0>        -0.7141
     30 C20         6.3306   -3.3710   -4.9094 C.3       1 <0>         0.1232
     31 N5         11.7978   -4.3827   -7.1307 N.pl3     1 <0>        -0.8257
     32 N6          9.4178   -0.3631   -7.5866 N.pl3     1 <0>        -0.8380
     33 H1          1.0039    1.9031    0.0027 H         1 <0>         0.0336
     34 H2         -0.5459    1.8868   -0.8726 H         1 <0>         0.0600
     35 H3         -0.5289    1.8773    0.9072 H         1 <0>         0.0699
     36 H4          0.7568   -1.6008    1.2356 H         1 <0>         0.0518
     37 H5          1.7647   -0.1336    1.2338 H         1 <0>         0.0450
     38 H6          0.0111    1.0724    2.5063 H         1 <0>         0.0499
     39 H7         -0.9967   -0.3948    2.5081 H         1 <0>         0.1032
     40 H8          1.4848   -1.0239   -1.1249 H         1 <0>         0.3888
     41 H9         -0.3208    0.2238   -5.2366 H         1 <0>         0.1551
     42 H10         1.4673   -1.0101   -6.8226 H         1 <0>         0.1472
     43 H11         3.7432   -3.2160   -4.6504 H         1 <0>         0.0840
     44 H12         3.3028   -2.9077   -6.3472 H         1 <0>         0.0924
     45 H13         4.5394   -0.7595   -6.2779 H         1 <0>         0.0748
     46 H14         4.9798   -1.0678   -4.5811 H         1 <0>         0.0750
     47 H15         5.6955   -2.8961   -6.9178 H         1 <0>         0.0807
     48 H16         6.9443   -0.8292   -7.1390 H         1 <0>         0.0654
     49 H17         7.2896   -0.7904   -5.3966 H         1 <0>         0.0670
     50 H18         7.4348   -5.1538   -5.2985 H         1 <0>         0.4081
     51 H19         6.6448   -2.8399   -4.0109 H         1 <0>         0.0704
     52 H20         5.4755   -4.0076   -4.6821 H         1 <0>         0.0928
     53 H21        12.5488   -3.9719   -7.5867 H         1 <0>         0.4106
     54 H22        11.8587   -5.3020   -6.8270 H         1 <0>         0.4118
     55 H23         8.6147    0.1615   -7.4428 H         1 <0>         0.4112
     56 H24        10.1790    0.0301   -8.0414 H         1 <0>         0.4034
@<TRIPOS>BOND
     1    1    2 1
     2    1   33 1
     3    1   34 1
     4    1   35 1
     5    2    3 1
     6    2    8 1
     7    2   11 1
     8    3    4 1
     9    3   36 1
    10    3   37 1
    11    4    5 1
    12    4   38 1
    13    4   39 1
    14    5    6 2
    15    5    7 1
    16    8    9 2
    17    8   10 1
    18   11   12 am
    19   11   40 1
    20   12   13 2
    21   12   14 1
    22   14   18 1
    23   14   15 2
    24   15   16 1
    25   15   41 1
    26   16   17 2
    27   16   42 1
    28   17   18 1
    29   17   19 1
    30   19   20 1
    31   19   43 1
    32   19   44 1
    33   20   21 1
    34   20   45 1
    35   20   46 1
    36   21   30 1
    37   21   22 1
    38   21   47 1
    39   22   23 1
    40   22   48 1
    41   22   49 1
    42   23   28 ar
    43   23   24 ar
    44   24   25 ar
    45   24   32 1
    46   25   26 ar
    47   26   27 ar
    48   26   31 1
    49   27   28 ar
    50   28   29 1
    51   29   30 1
    52   29   50 1
    53   30   51 1
    54   30   52 1
    55   31   53 1
    56   31   54 1
    57   32   55 1
    58   32   56 1
@<TRIPOS>MOLECULE
CHEMBL491129
   58    60     0     0     0
SMALL
USER_CHARGES

@<TRIPOS>ATOM
      1 C1         -0.0167    1.3794    0.0096 C.ar      1 <0>        -0.1291
      2 C2          1.1667    2.0884    0.0021 C.ar      1 <0>        -0.0645
      3 C3          2.3848    1.4070   -0.0132 C.ar      1 <0>        -0.1096
      4 C4          2.3966    0.0113   -0.0208 C.ar      1 <0>        -0.0834
      5 C5          1.2061   -0.6856   -0.0132 C.ar      1 <0>        -0.1245
      6 C6          0.0021   -0.0041    0.0020 C.ar      1 <0>        -0.0780
      7 C7         -1.2946   -0.7719    0.0103 C.3       1 <0>        -0.0762
      8 C8         -1.7472   -1.0241   -1.4293 C.3       1 <0>        -0.1163
      9 C9         -3.0637   -1.8037   -1.4209 C.3       1 <0>        -0.1180
     10 C10        -3.5163   -2.0558   -2.8605 C.3       1 <0>        -0.1187
     11 C11        -4.8327   -2.8354   -2.8521 C.3       1 <0>        -0.0323
     12 C12        -5.2786   -3.0837   -4.2701 C.2       1 <0>        -0.1613
     13 C13        -4.9924   -4.1290   -5.0601 C.2       1 <0>        -0.0792
     14 C14        -5.5323   -4.1682   -6.4082 C.2       1 <0>        -0.2947
     15 C15        -5.3682   -5.1653   -7.4209 C.2       1 <0>         0.5746
     16 O1         -4.6942   -6.1582   -7.2065 O.2       1 <0>        -0.5237
     17 N1         -5.9681   -4.9930   -8.6131 N.am      1 <0>        -0.6541
     18 H1         -5.8591   -5.6669   -9.3023 H         1 <0>         0.4149
     19 C16        -6.7265   -3.8894   -8.8708 C.2       1 <0>         0.6493
     20 N2         -6.8947   -2.9559   -7.9576 N.2       1 <0>        -0.5503
     21 C17        -6.3303   -3.0637   -6.7605 C.2       1 <0>         0.1537
     22 S1         -6.3187   -2.0620   -5.2959 S.3       1 <0>         0.1322
     23 N3         -7.3225   -3.7495  -10.0995 N.pl3     1 <0>        -0.8153
     24 C18         3.6569    2.1603   -0.0218 C.2       1 <0>         0.5502
     25 O2          3.6435    3.3757   -0.0155 O.2       1 <0>        -0.5552
     26 N4          4.8314    1.4994   -0.0366 N.am      1 <0>        -0.6759
     27 C19         6.0919    2.2459   -0.0451 C.3       1 <0>         0.0725
     28 H2          5.9814    3.1523    0.5501 H         1 <0>         0.0780
     29 C20         7.2027    1.3778    0.5494 C.3       1 <0>        -0.0805
     30 C21         6.9032    1.1060    2.0250 C.3       1 <0>        -0.1779
     31 C22         7.9973    0.2510    2.6105 C.2       1 <0>         0.4909
     32 O3          8.9302   -0.1078    1.9123 O.co2     1 <0>        -0.6971
     33 O4          7.9496   -0.0820    3.7824 O.co2     1 <0>        -0.7202
     34 C23         6.4472    2.6155   -1.4622 C.2       1 <0>         0.4957
     35 O5          5.7154    2.2860   -2.3799 O.co2     1 <0>        -0.6968
     36 O6          7.4666    3.2441   -1.6909 O.co2     1 <0>        -0.7001
     37 H3         -0.9598    1.9054    0.0260 H         1 <0>         0.1210
     38 H4          1.1508    3.1682    0.0077 H         1 <0>         0.1328
     39 H5          3.3358   -0.5219   -0.0330 H         1 <0>         0.1282
     40 H6          1.2138   -1.7656   -0.0191 H         1 <0>         0.1228
     41 H7         -1.1489   -1.7256    0.5176 H         1 <0>         0.0703
     42 H8         -2.0557   -0.1941    0.5345 H         1 <0>         0.0693
     43 H9         -1.8929   -0.0704   -1.9367 H         1 <0>         0.0651
     44 H10        -0.9861   -1.6019   -1.9536 H         1 <0>         0.0661
     45 H11        -2.9179   -2.7573   -0.9136 H         1 <0>         0.0638
     46 H12        -3.8248   -1.2258   -0.8967 H         1 <0>         0.0629
     47 H13        -3.6620   -1.1021   -3.3679 H         1 <0>         0.0670
     48 H14        -2.7551   -2.6337   -3.3848 H         1 <0>         0.0684
     49 H15        -4.6870   -3.7890   -2.3448 H         1 <0>         0.0885
     50 H16        -5.5939   -2.2575   -2.3279 H         1 <0>         0.0804
     51 H17        -4.3676   -4.9322   -4.6983 H         1 <0>         0.1402
     52 H18        -7.2027   -4.4330  -10.7773 H         1 <0>         0.4171
     53 H19        -7.8634   -2.9671  -10.2900 H         1 <0>         0.4312
     54 H20         4.8421    0.5294   -0.0416 H         1 <0>         0.3892
     55 H21         7.2537    0.4325    0.0090 H         1 <0>         0.0550
     56 H22         8.1565    1.8981    0.4621 H         1 <0>         0.0793
     57 H23         6.8522    2.0513    2.5654 H         1 <0>         0.0523
     58 H24         5.9494    0.5857    2.1123 H         1 <0>         0.0501
@<TRIPOS>BOND
     1    1    6 ar
     2    1    2 ar
     3    1   37 1
     4    2    3 ar
     5    2   38 1
     6    3    4 ar
     7    3   24 1
     8    4    5 ar
     9    4   39 1
    10    5    6 ar
    11    5   40 1
    12    6    7 1
    13    7    8 1
    14    7   41 1
    15    7   42 1
    16    8    9 1
    17    8   43 1
    18    8   44 1
    19    9   10 1
    20    9   45 1
    21    9   46 1
    22   10   11 1
    23   10   47 1
    24   10   48 1
    25   11   12 1
    26   11   49 1
    27   11   50 1
    28   12   22 1
    29   12   13 2
    30   13   14 1
    31   13   51 1
    32   14   21 2
    33   14   15 1
    34   15   16 2
    35   15   17 am
    36   17   18 1
    37   17   19 1
    38   19   20 2
    39   19   23 1
    40   20   21 1
    41   21   22 1
    42   23   52 1
    43   23   53 1
    44   24   25 2
    45   24   26 am
    46   26   27 1
    47   26   54 1
    48   27   28 1
    49   27   29 1
    50   27   34 1
    51   29   30 1
    52   29   55 1
    53   29   56 1
    54   30   31 1
    55   30   57 1
    56   30   58 1
    57   31   32 2
    58   31   33 1
    59   34   35 2
    60   34   36 1
@<TRIPOS>MOLECULE
CHEMBL453090
   58    59     0     0     0
SMALL
USER_CHARGES

@<TRIPOS>ATOM
      1 C1         -0.0225    1.8097    0.0120 C.3       1 <0>        -0.1242
      2 S1          0.0021   -0.0041    0.0020 S.3       1 <0>        -0.2489
      3 C2         -1.7518   -0.4668    0.0163 C.3       1 <0>        -0.0049
      4 H1         -2.2454    0.0059    0.8654 H         1 <0>         0.0908
      5 C3         -1.8773   -1.9870    0.1350 C.3       1 <0>        -0.0967
      6 C4         -1.3282   -2.4398    1.4894 C.3       1 <0>        -0.1135
      7 C5         -1.4536   -3.9600    1.6082 C.3       1 <0>        -0.0267
      8 C6         -0.9127   -4.4060    2.9422 C.2       1 <0>        -0.3956
      9 C7         -1.7625   -4.5929    4.0231 C.2       1 <0>         0.4868
     10 N1         -1.2628   -4.9897    5.1994 N.2       1 <0>        -0.6251
     11 C8          0.0261   -5.2077    5.3531 C.2       1 <0>         0.6624
     12 N2          0.9008   -5.0382    4.3244 N.am      1 <0>        -0.6618
     13 H2          1.8466   -5.2045    4.4610 H         1 <0>         0.4082
     14 C9          0.4545   -4.6450    3.1131 C.2       1 <0>         0.5554
     15 O1          1.2318   -4.4956    2.1835 O.2       1 <0>        -0.5429
     16 N3          0.4967   -5.6129    6.5736 N.pl3     1 <0>        -0.8232
     17 N4         -3.1178   -4.3701    3.8857 N.pl3     1 <0>        -0.8281
     18 C10        -2.4030   -0.0075   -1.2628 C.ar      1 <0>        -0.0855
     19 C11        -1.9446   -0.4832   -2.4785 C.ar      1 <0>        -0.1051
     20 C12        -2.5362   -0.0667   -3.6531 C.ar      1 <0>        -0.0654
     21 C13        -3.5995    0.8366   -3.6132 C.ar      1 <0>        -0.1012
     22 C14        -4.0571    1.3126   -2.3835 C.ar      1 <0>        -0.0859
     23 C15        -3.4603    0.8838   -1.2160 C.ar      1 <0>        -0.1193
     24 C16        -4.2380    1.2876   -4.8681 C.2       1 <0>         0.5495
     25 O2         -3.8371    0.8717   -5.9376 O.2       1 <0>        -0.5528
     26 N5         -5.2645    2.1600   -4.8262 N.am      1 <0>        -0.6755
     27 C17        -5.8972    2.6069   -6.0697 C.3       1 <0>         0.0724
     28 H3         -5.9040    1.7877   -6.7887 H         1 <0>         0.0783
     29 C18        -7.3346    3.0448   -5.7818 C.3       1 <0>        -0.0803
     30 C19        -8.1535    1.8367   -5.3225 C.3       1 <0>        -0.1778
     31 C20        -9.5693    2.2680   -5.0389 C.2       1 <0>         0.4910
     32 O3         -9.8934    3.4336   -5.1902 O.co2     1 <0>        -0.6971
     33 O4        -10.3907    1.4513   -4.6583 O.co2     1 <0>        -0.7203
     34 C21        -5.1227    3.7679   -6.6383 C.2       1 <0>         0.4957
     35 O5         -4.1339    4.1835   -6.0586 O.co2     1 <0>        -0.6970
     36 O6         -5.4849    4.2916   -7.6780 O.co2     1 <0>        -0.6996
     37 H4          1.0001    2.1870    0.0043 H         1 <0>         0.0966
     38 H5         -0.5497    2.1708   -0.8711 H         1 <0>         0.0812
     39 H6         -0.5327    2.1613    0.9088 H         1 <0>         0.0724
     40 H7         -2.9261   -2.2725    0.0544 H         1 <0>         0.0779
     41 H8         -1.3089   -2.4621   -0.6646 H         1 <0>         0.0755
     42 H9         -0.2793   -2.1544    1.5701 H         1 <0>         0.0769
     43 H10        -1.8965   -1.9648    2.2891 H         1 <0>         0.0546
     44 H11        -2.5024   -4.2455    1.5276 H         1 <0>         0.0552
     45 H12        -0.8852   -4.4351    0.8085 H         1 <0>         0.0715
     46 H13        -0.1179   -5.7365    7.3137 H         1 <0>         0.4270
     47 H14         1.4447   -5.7763    6.6979 H         1 <0>         0.4145
     48 H15        -3.4779   -4.0822    3.0322 H         1 <0>         0.4169
     49 H16        -3.7101   -4.5013    4.6425 H         1 <0>         0.4041
     50 H17        -1.1215   -1.1819   -2.5079 H         1 <0>         0.1282
     51 H18        -2.1772   -0.4385   -4.6014 H         1 <0>         0.1353
     52 H19        -4.8794    2.0118   -2.3459 H         1 <0>         0.1293
     53 H20        -3.8162    1.2479   -0.2636 H         1 <0>         0.1215
     54 H21        -5.5844    2.4919   -3.9728 H         1 <0>         0.3889
     55 H22        -7.3336    3.8022   -4.9980 H         1 <0>         0.0547
     56 H23        -7.7763    3.4599   -6.6877 H         1 <0>         0.0794
     57 H24        -8.1545    1.0792   -6.1063 H         1 <0>         0.0524
     58 H25        -7.7118    1.4216   -4.4166 H         1 <0>         0.0499
@<TRIPOS>BOND
     1    1    2 1
     2    1   37 1
     3    1   38 1
     4    1   39 1
     5    2    3 1
     6    3    4 1
     7    3    5 1
     8    3   18 1
     9    5    6 1
    10    5   40 1
    11    5   41 1
    12    6    7 1
    13    6   42 1
    14    6   43 1
    15    7    8 1
    16    7   44 1
    17    7   45 1
    18    8   14 1
    19    8    9 2
    20    9   10 1
    21    9   17 1
    22   10   11 2
    23   11   12 1
    24   11   16 1
    25   12   13 1
    26   12   14 am
    27   14   15 2
    28   16   46 1
    29   16   47 1
    30   17   48 1
    31   17   49 1
    32   18   23 ar
    33   18   19 ar
    34   19   20 ar
    35   19   50 1
    36   20   21 ar
    37   20   51 1
    38   21   22 ar
    39   21   24 1
    40   22   23 ar
    41   22   52 1
    42   23   53 1
    43   24   25 2
    44   24   26 am
    45   26   27 1
    46   26   54 1
    47   27   28 1
    48   27   29 1
    49   27   34 1
    50   29   30 1
    51   29   55 1
    52   29   56 1
    53   30   31 1
    54   30   57 1
    55   30   58 1
    56   31   32 2
    57   31   33 1
    58   34   35 2
    59   34   36 1
@<TRIPOS>MOLECULE
CHEMBL82261
   53    55     0     0     0
SMALL
USER_CHARGES

@<TRIPOS>ATOM
      1 C1         -0.0184    1.5028    0.0103 C.3       1 <0>        -0.0920
      2 C2          0.0021   -0.0041    0.0020 C.2       1 <0>        -0.1399
      3 C3          0.0059   -0.6942   -1.1864 C.2       1 <0>        -0.0916
      4 C4          0.0251   -2.0766   -1.0801 C.2       1 <0>        -0.2052
      5 S1          0.0365   -2.3077    0.6875 S.3       1 <0>         0.2020
      6 C5          0.0226   -0.6976    1.1670 C.2       1 <0>        -0.2215
      7 C6          0.0288   -0.1496    2.5708 C.3       1 <0>        -0.0299
      8 C7         -1.4114    0.0167    3.0598 C.3       1 <0>        -0.0942
      9 C8         -1.4050    0.5732    4.4850 C.3       1 <0>        -0.1052
     10 C9         -2.8449    0.6717    5.0131 C.3       1 <0>         0.1262
     11 N1         -2.8069    1.1111    6.4046 N.pl3     1 <0>        -0.7076
     12 C10        -2.1630    2.2587    6.8174 C.2       1 <0>         0.4827
     13 C11        -1.1795    2.8799    6.0665 C.2       1 <0>        -0.3940
     14 C12        -0.5581    4.0327    6.5672 C.2       1 <0>         0.5751
     15 N2         -0.9433    4.5091    7.7697 N.am      1 <0>        -0.6565
     16 C13        -1.9245    3.8734    8.4667 C.2       1 <0>         0.6604
     17 N3         -2.5080    2.7923    8.0038 N.2       1 <0>        -0.6147
     18 N4         -2.3130    4.3746    9.6835 N.pl3     1 <0>        -0.8224
     19 O1          0.3167    4.5956    5.9266 O.2       1 <0>        -0.5298
     20 S2         -0.7041    2.2516    4.4896 S.3       1 <0>        -0.0464
     21 C14         0.0339   -3.0850   -2.1438 C.2       1 <0>         0.5877
     22 O2          0.0238   -2.7389   -3.3106 O.2       1 <0>        -0.5404
     23 N5          0.0531   -4.3956   -1.8299 N.am      1 <0>        -0.6728
     24 C15         0.0618   -5.4035   -2.8930 C.3       1 <0>         0.0738
     25 H1         -0.5364   -5.0506   -3.7331 H         1 <0>         0.0800
     26 C16        -0.5277   -6.7112   -2.3608 C.3       1 <0>        -0.0827
     27 C17        -2.0030   -6.5016   -2.0139 C.3       1 <0>        -0.1778
     28 C18        -2.5836   -7.7897   -1.4897 C.2       1 <0>         0.4915
     29 O3         -1.8824   -8.7833   -1.4018 O.co2     1 <0>        -0.6972
     30 O4         -3.7546   -7.8383   -1.1535 O.co2     1 <0>        -0.7196
     31 C19         1.4785   -5.6400   -3.3493 C.2       1 <0>         0.4984
     32 O5          2.4025   -5.5002   -2.5663 O.co2     1 <0>        -0.6971
     33 O6          1.7005   -5.9712   -4.5015 O.co2     1 <0>        -0.6998
     34 H2          1.0042    1.8801    0.0026 H         1 <0>         0.0636
     35 H3         -0.5455    1.8639   -0.8728 H         1 <0>         0.0615
     36 H4         -0.5286    1.8543    0.9071 H         1 <0>         0.0641
     37 H5         -0.0057   -0.1918   -2.1424 H         1 <0>         0.1447
     38 H6          0.5583   -0.8395    3.2278 H         1 <0>         0.0799
     39 H7          0.5299    0.8184    2.5807 H         1 <0>         0.0898
     40 H8         -1.9408    0.7067    2.4027 H         1 <0>         0.0826
     41 H9         -1.9125   -0.9512    3.0499 H         1 <0>         0.0880
     42 H10        -0.8157   -0.0757    5.1328 H         1 <0>         0.1009
     43 H11        -3.4039    1.3932    4.4173 H         1 <0>         0.0835
     44 H12        -3.3242   -0.3053    4.9516 H         1 <0>         0.1066
     45 H13        -3.2564    0.5692    7.0718 H         1 <0>         0.4093
     46 H14        -1.8896    5.1725   10.0369 H         1 <0>         0.4147
     47 H15        -3.0111    3.9309   10.1902 H         1 <0>         0.4278
     48 H16         0.0611   -4.6714   -0.8999 H         1 <0>         0.3913
     49 H17        -0.4401   -7.4858   -3.1227 H         1 <0>         0.0741
     50 H18         0.0158   -7.0176   -1.4670 H         1 <0>         0.0611
     51 H19        -2.0906   -5.7270   -1.2520 H         1 <0>         0.0511
     52 H20        -2.5465   -6.1953   -2.9076 H         1 <0>         0.0533
     53 H21        -0.5219    5.3021    8.1364 H         1 <0>         0.4130
@<TRIPOS>BOND
     1    1    2 1
     2    1   34 1
     3    1   35 1
     4    1   36 1
     5    2    6 2
     6    2    3 1
     7    3    4 2
     8    3   37 1
     9    4    5 1
    10    4   21 1
    11    5    6 1
    12    6    7 1
    13    7    8 1
    14    7   38 1
    15    7   39 1
    16    8    9 1
    17    8   40 1
    18    8   41 1
    19    9   20 1
    20    9   10 1
    21    9   42 1
    22   10   11 1
    23   10   43 1
    24   10   44 1
    25   11   12 1
    26   11   45 1
    27   12   17 1
    28   12   13 2
    29   13   14 1
    30   13   20 1
    31   14   15 am
    32   14   19 2
    33   15   16 1
    34   15   53 1
    35   16   17 2
    36   16   18 1
    37   18   46 1
    38   18   47 1
    39   21   22 2
    40   21   23 am
    41   23   24 1
    42   23   48 1
    43   24   25 1
    44   24   26 1
    45   24   31 1
    46   26   27 1
    47   26   49 1
    48   26   50 1
    49   27   28 1
    50   27   51 1
    51   27   52 1
    52   28   29 2
    53   28   30 1
    54   31   32 2
    55   31   33 1
@<TRIPOS>MOLECULE
CHEMBL82261__1
   53    55     0     0     0
SMALL
USER_CHARGES

@<TRIPOS>ATOM
      1 C1         -0.0184    1.5028    0.0103 C.3       1 <0>        -0.0925
      2 C2          0.0021   -0.0041    0.0020 C.2       1 <0>        -0.1381
      3 C3          0.0059   -0.6942   -1.1864 C.2       1 <0>        -0.0930
      4 C4          0.0251   -2.0766   -1.0801 C.2       1 <0>        -0.2012
      5 S1          0.0365   -2.3077    0.6875 S.3       1 <0>         0.1991
      6 C5          0.0226   -0.6976    1.1670 C.2       1 <0>        -0.2237
      7 C6          0.0288   -0.1496    2.5708 C.3       1 <0>        -0.0300
      8 C7         -1.4114    0.0167    3.0598 C.3       1 <0>        -0.0943
      9 C8         -1.4050    0.5732    4.4850 C.3       1 <0>        -0.1130
     10 C9         -2.8453    0.6739    5.0129 C.3       1 <0>         0.1310
     11 N1         -2.8045    1.1301    6.3990 N.pl3     1 <0>        -0.7313
     12 C10        -2.1601    2.2754    6.7992 C.2       1 <0>         0.4384
     13 C11        -1.1881    2.8835    6.0636 C.2       1 <0>        -0.3445
     14 C12        -0.5635    4.0460    6.5675 C.2       1 <0>         0.5612
     15 N2         -0.9444    4.5438    7.7537 N.2       1 <0>        -0.6252
     16 C13        -1.8928    3.9593    8.4538 C.2       1 <0>         0.6607
     17 N3         -2.5136    2.8374    8.0072 N.pl3     1 <0>        -0.6490
     18 N4         -2.2623    4.4950    9.6610 N.pl3     1 <0>        -0.8237
     19 O1          0.3207    4.5959    5.9256 O.2       1 <0>        -0.5092
     20 S2         -0.7042    2.2517    4.4901 S.3       1 <0>        -0.0288
     21 C14         0.0339   -3.0850   -2.1438 C.2       1 <0>         0.5920
     22 O2          0.0238   -2.7389   -3.3106 O.2       1 <0>        -0.5420
     23 N5          0.0531   -4.3956   -1.8299 N.am      1 <0>        -0.6720
     24 C15         0.0618   -5.4035   -2.8930 C.3       1 <0>         0.0728
     25 H1         -0.5364   -5.0506   -3.7331 H         1 <0>         0.0804
     26 C16        -0.5277   -6.7112   -2.3608 C.3       1 <0>        -0.0815
     27 C17        -2.0030   -6.5016   -2.0139 C.3       1 <0>        -0.1780
     28 C18        -2.5836   -7.7897   -1.4897 C.2       1 <0>         0.4914
     29 O3         -1.8824   -8.7833   -1.4018 O.co2     1 <0>        -0.6968
     30 O4         -3.7546   -7.8383   -1.1535 O.co2     1 <0>        -0.7202
     31 C19         1.4785   -5.6400   -3.3493 C.2       1 <0>         0.4971
     32 O5          2.4089   -5.1669   -2.7192 O.co2     1 <0>        -0.6963
     33 O6          1.6941   -6.3045   -4.3486 O.co2     1 <0>        -0.6993
     34 H2          1.0042    1.8801    0.0026 H         1 <0>         0.0645
     35 H3         -0.5455    1.8639   -0.8728 H         1 <0>         0.0618
     36 H4         -0.5286    1.8543    0.9071 H         1 <0>         0.0636
     37 H5         -0.0057   -0.1918   -2.1424 H         1 <0>         0.1449
     38 H6          0.5583   -0.8395    3.2278 H         1 <0>         0.0800
     39 H7          0.5299    0.8184    2.5807 H         1 <0>         0.0902
     40 H8         -1.9408    0.7067    2.4027 H         1 <0>         0.0832
     41 H9         -1.9125   -0.9512    3.0499 H         1 <0>         0.0882
     42 H10        -0.8163   -0.0760    5.1332 H         1 <0>         0.1029
     43 H11        -3.4068    1.3872    4.4096 H         1 <0>         0.0860
     44 H12        -3.3220   -0.3051    4.9640 H         1 <0>         0.1092
     45 H13        -3.2560    0.5972    7.0721 H         1 <0>         0.4035
     46 H14        -1.8257    5.2962    9.9901 H         1 <0>         0.4312
     47 H15        -2.9603    4.0726   10.1858 H         1 <0>         0.4098
     48 H16         0.0611   -4.6714   -0.8999 H         1 <0>         0.3897
     49 H17        -0.4401   -7.4858   -3.1227 H         1 <0>         0.0786
     50 H18         0.0158   -7.0176   -1.4670 H         1 <0>         0.0574
     51 H19        -2.0906   -5.7270   -1.2520 H         1 <0>         0.0503
     52 H20        -2.5465   -6.1953   -2.9076 H         1 <0>         0.0532
     53 H21        -3.2114    2.4281    8.5424 H         1 <0>         0.4115
@<TRIPOS>BOND
     1    1    2 1
     2    1   34 1
     3    1   35 1
     4    1   36 1
     5    2    6 2
     6    2    3 1
     7    3    4 2
     8    3   37 1
     9    4    5 1
    10    4   21 1
    11    5    6 1
    12    6    7 1
    13    7    8 1
    14    7   38 1
    15    7   39 1
    16    8    9 1
    17    8   40 1
    18    8   41 1
    19    9   20 1
    20    9   10 1
    21    9   42 1
    22   10   11 1
    23   10   43 1
    24   10   44 1
    25   11   12 1
    26   11   45 1
    27   12   17 1
    28   12   13 2
    29   13   14 1
    30   13   20 1
    31   14   15 1
    32   14   19 2
    33   15   16 2
    34   16   17 1
    35   16   18 1
    36   17   53 1
    37   18   46 1
    38   18   47 1
    39   21   22 2
    40   21   23 am
    41   23   24 1
    42   23   48 1
    43   24   25 1
    44   24   26 1
    45   24   31 1
    46   26   27 1
    47   26   49 1
    48   26   50 1
    49   27   28 1
    50   27   51 1
    51   27   52 1
    52   28   29 2
    53   28   30 1
    54   31   32 2
    55   31   33 1
@<TRIPOS>MOLECULE
CHEMBL82261__2
   53    55     0     0     0
SMALL
USER_CHARGES

@<TRIPOS>ATOM
      1 C1         -0.0184    1.5028    0.0103 C.3       1 <0>        -0.0888
      2 C2          0.0021   -0.0041    0.0020 C.2       1 <0>        -0.1445
      3 C3          0.0059   -0.6942   -1.1864 C.2       1 <0>        -0.0932
      4 C4          0.0251   -2.0766   -1.0801 C.2       1 <0>        -0.2070
      5 S1          0.0365   -2.3077    0.6875 S.3       1 <0>         0.2133
      6 C5          0.0226   -0.6976    1.1670 C.2       1 <0>        -0.2217
      7 C6          0.0288   -0.1496    2.5708 C.3       1 <0>        -0.0295
      8 C7         -1.4114    0.0167    3.0598 C.3       1 <0>        -0.0943
      9 C8         -1.4050    0.5732    4.4850 C.3       1 <0>        -0.1062
     10 C9         -2.8473    0.8158    4.9569 C.3       1 <0>         0.1264
     11 N1         -2.8124    1.4363    6.2777 N.pl3     1 <0>        -0.7090
     12 C10        -2.1397    0.8914    7.3511 C.2       1 <0>         0.4799
     13 C11        -1.1295   -0.0447    7.2081 C.2       1 <0>        -0.3916
     14 C12        -0.4801   -0.5346    8.3501 C.2       1 <0>         0.5740
     15 N2         -0.8649   -0.0818    9.5617 N.am      1 <0>        -0.6559
     16 C13        -1.8725    0.8285    9.6552 C.2       1 <0>         0.6602
     17 N3         -2.4824    1.2924    8.5893 N.2       1 <0>        -0.6155
     18 N4         -2.2607    1.2720   10.8943 N.pl3     1 <0>        -0.8228
     19 O1          0.4183   -1.3564    8.2500 O.2       1 <0>        -0.5253
     20 S2         -0.6548   -0.6368    5.6171 S.3       1 <0>        -0.0396
     21 C14         0.0339   -3.0850   -2.1438 C.2       1 <0>         0.5876
     22 O2          0.0238   -2.7389   -3.3106 O.2       1 <0>        -0.5415
     23 N5          0.0531   -4.3956   -1.8299 N.am      1 <0>        -0.6723
     24 C15         0.0618   -5.4035   -2.8930 C.3       1 <0>         0.0740
     25 H1         -0.5364   -5.0506   -3.7331 H         1 <0>         0.0798
     26 C16        -0.5277   -6.7112   -2.3608 C.3       1 <0>        -0.0831
     27 C17        -2.0030   -6.5016   -2.0139 C.3       1 <0>        -0.1778
     28 C18        -2.5836   -7.7897   -1.4897 C.2       1 <0>         0.4917
     29 O3         -1.8824   -8.7833   -1.4018 O.co2     1 <0>        -0.6972
     30 O4         -3.7546   -7.8383   -1.1535 O.co2     1 <0>        -0.7196
     31 C19         1.4785   -5.6400   -3.3493 C.2       1 <0>         0.4984
     32 O5          2.4025   -5.5002   -2.5663 O.co2     1 <0>        -0.6967
     33 O6          1.7005   -5.9712   -4.5015 O.co2     1 <0>        -0.7001
     34 H2          1.0042    1.8801    0.0026 H         1 <0>         0.0621
     35 H3         -0.5455    1.8639   -0.8728 H         1 <0>         0.0613
     36 H4         -0.5286    1.8543    0.9071 H         1 <0>         0.0599
     37 H5         -0.0057   -0.1918   -2.1424 H         1 <0>         0.1440
     38 H6          0.5583   -0.8395    3.2278 H         1 <0>         0.0855
     39 H7          0.5299    0.8184    2.5807 H         1 <0>         0.0835
     40 H8         -1.9408    0.7067    2.4027 H         1 <0>         0.0853
     41 H9         -1.9125   -0.9512    3.0499 H         1 <0>         0.0847
     42 H10        -0.8427    1.5064    4.5153 H         1 <0>         0.0986
     43 H11        -3.3546    1.4781    4.2554 H         1 <0>         0.1033
     44 H12        -3.3778   -0.1347    5.0137 H         1 <0>         0.0851
     45 H13        -3.2855    2.2733    6.4066 H         1 <0>         0.4076
     46 H14        -1.8183    0.9369   11.6899 H         1 <0>         0.4148
     47 H15        -2.9774    1.9206   10.9747 H         1 <0>         0.4271
     48 H16         0.0611   -4.6714   -0.8999 H         1 <0>         0.3918
     49 H17        -0.4401   -7.4858   -3.1227 H         1 <0>         0.0741
     50 H18         0.0158   -7.0176   -1.4670 H         1 <0>         0.0616
     51 H19        -2.0906   -5.7270   -1.2520 H         1 <0>         0.0513
     52 H20        -2.5465   -6.1953   -2.9076 H         1 <0>         0.0529
     53 H21        -0.4249   -0.4044   10.3637 H         1 <0>         0.4135
@<TRIPOS>BOND
     1    1    2 1
     2    1   34 1
     3    1   35 1
     4    1   36 1
     5    2    6 2
     6    2    3 1
     7    3    4 2
     8    3   37 1
     9    4    5 1
    10    4   21 1
    11    5    6 1
    12    6    7 1
    13    7    8 1
    14    7   38 1
    15    7   39 1
    16    8    9 1
    17    8   40 1
    18    8   41 1
    19    9   20 1
    20    9   10 1
    21    9   42 1
    22   10   11 1
    23   10   43 1
    24   10   44 1
    25   11   12 1
    26   11   45 1
    27   12   17 1
    28   12   13 2
    29   13   14 1
    30   13   20 1
    31   14   15 am
    32   14   19 2
    33   15   16 1
    34   15   53 1
    35   16   17 2
    36   16   18 1
    37   18   46 1
    38   18   47 1
    39   21   22 2
    40   21   23 am
    41   23   24 1
    42   23   48 1
    43   24   25 1
    44   24   26 1
    45   24   31 1
    46   26   27 1
    47   26   49 1
    48   26   50 1
    49   27   28 1
    50   27   51 1
    51   27   52 1
    52   28   29 2
    53   28   30 1
    54   31   32 2
    55   31   33 1
@<TRIPOS>MOLECULE
CHEMBL82261__3
   53    55     0     0     0
SMALL
USER_CHARGES

@<TRIPOS>ATOM
      1 C1         -0.0184    1.5028    0.0103 C.3       1 <0>        -0.0885
      2 C2          0.0021   -0.0041    0.0020 C.2       1 <0>        -0.1434
      3 C3          0.0059   -0.6942   -1.1864 C.2       1 <0>        -0.0952
      4 C4          0.0251   -2.0766   -1.0801 C.2       1 <0>        -0.2030
      5 S1          0.0365   -2.3077    0.6875 S.3       1 <0>         0.2128
      6 C5          0.0226   -0.6976    1.1670 C.2       1 <0>        -0.2242
      7 C6          0.0288   -0.1496    2.5708 C.3       1 <0>        -0.0296
      8 C7         -1.4114    0.0167    3.0598 C.3       1 <0>        -0.0945
      9 C8         -1.4050    0.5732    4.4850 C.3       1 <0>        -0.1140
     10 C9         -2.8477    0.8140    4.9582 C.3       1 <0>         0.1312
     11 N1         -2.8094    1.4186    6.2864 N.pl3     1 <0>        -0.7324
     12 C10        -2.1361    0.8668    7.3490 C.2       1 <0>         0.4347
     13 C11        -1.1380   -0.0496    7.2085 C.2       1 <0>        -0.3412
     14 C12        -0.4852   -0.5443    8.3593 C.2       1 <0>         0.5595
     15 N2         -0.8648   -0.1182    9.5735 N.2       1 <0>        -0.6235
     16 C13        -1.8381    0.7575    9.7036 C.2       1 <0>         0.6598
     17 N3         -2.4867    1.2614    8.6224 N.pl3     1 <0>        -0.6491
     18 N4         -2.2056    1.1705   10.9587 N.pl3     1 <0>        -0.8242
     19 O1          0.4218   -1.3578    8.2494 O.2       1 <0>        -0.5045
     20 S2         -0.6549   -0.6366    5.6175 S.3       1 <0>        -0.0216
     21 C14         0.0339   -3.0850   -2.1438 C.2       1 <0>         0.5918
     22 O2          0.0238   -2.7389   -3.3106 O.2       1 <0>        -0.5435
     23 N5          0.0531   -4.3956   -1.8299 N.am      1 <0>        -0.6713
     24 C15         0.0618   -5.4035   -2.8930 C.3       1 <0>         0.0731
     25 H1         -0.5364   -5.0506   -3.7331 H         1 <0>         0.0801
     26 C16        -0.5277   -6.7112   -2.3608 C.3       1 <0>        -0.0821
     27 C17        -2.0030   -6.5016   -2.0139 C.3       1 <0>        -0.1780
     28 C18        -2.5836   -7.7897   -1.4897 C.2       1 <0>         0.4916
     29 O3         -1.8824   -8.7833   -1.4018 O.co2     1 <0>        -0.6966
     30 O4         -3.7546   -7.8383   -1.1535 O.co2     1 <0>        -0.7201
     31 C19         1.4785   -5.6400   -3.3493 C.2       1 <0>         0.4972
     32 O5          2.4089   -5.1669   -2.7192 O.co2     1 <0>        -0.6961
     33 O6          1.6941   -6.3045   -4.3486 O.co2     1 <0>        -0.6996
     34 H2          1.0042    1.8801    0.0026 H         1 <0>         0.0623
     35 H3         -0.5455    1.8639   -0.8728 H         1 <0>         0.0612
     36 H4         -0.5286    1.8543    0.9071 H         1 <0>         0.0590
     37 H5         -0.0057   -0.1918   -2.1424 H         1 <0>         0.1439
     38 H6          0.5583   -0.8395    3.2278 H         1 <0>         0.0859
     39 H7          0.5299    0.8184    2.5807 H         1 <0>         0.0837
     40 H8         -1.9408    0.7067    2.4027 H         1 <0>         0.0855
     41 H9         -1.9125   -0.9512    3.0499 H         1 <0>         0.0853
     42 H10        -0.8434    1.5068    4.5154 H         1 <0>         0.1007
     43 H11        -3.3526    1.4864    4.2647 H         1 <0>         0.1060
     44 H12        -3.3808   -0.1357    5.0040 H         1 <0>         0.0876
     45 H13        -3.2837    2.2533    6.4257 H         1 <0>         0.4019
     46 H14        -1.7493    0.8173   11.7384 H         1 <0>         0.4312
     47 H15        -2.9218    1.8157   11.0667 H         1 <0>         0.4091
     48 H16         0.0611   -4.6714   -0.8999 H         1 <0>         0.3905
     49 H17        -0.4401   -7.4858   -3.1227 H         1 <0>         0.0786
     50 H18         0.0158   -7.0176   -1.4670 H         1 <0>         0.0581
     51 H19        -2.0906   -5.7270   -1.2520 H         1 <0>         0.0506
     52 H20        -2.5465   -6.1953   -2.9076 H         1 <0>         0.0527
     53 H21        -3.2025    1.9041    8.7470 H         1 <0>         0.4106
@<TRIPOS>BOND
     1    1    2 1
     2    1   34 1
     3    1   35 1
     4    1   36 1
     5    2    6 2
     6    2    3 1
     7    3    4 2
     8    3   37 1
     9    4    5 1
    10    4   21 1
    11    5    6 1
    12    6    7 1
    13    7    8 1
    14    7   38 1
    15    7   39 1
    16    8    9 1
    17    8   40 1
    18    8   41 1
    19    9   20 1
    20    9   10 1
    21    9   42 1
    22   10   11 1
    23   10   43 1
    24   10   44 1
    25   11   12 1
    26   11   45 1
    27   12   17 1
    28   12   13 2
    29   13   14 1
    30   13   20 1
    31   14   15 1
    32   14   19 2
    33   15   16 2
    34   16   17 1
    35   16   18 1
    36   17   53 1
    37   18   46 1
    38   18   47 1
    39   21   22 2
    40   21   23 am
    41   23   24 1
    42   23   48 1
    43   24   25 1
    44   24   26 1
    45   24   31 1
    46   26   27 1
    47   26   49 1
    48   26   50 1
    49   27   28 1
    50   27   51 1
    51   27   52 1
    52   28   29 2
    53   28   30 1
    54   31   32 2
    55   31   33 1
@<TRIPOS>MOLECULE
CHEMBL379094
   59    60     0     0     0
SMALL
USER_CHARGES

@<TRIPOS>ATOM
      1 C1         -0.0167    1.3794    0.0096 C.ar      1 <0>        -0.1087
      2 C2          1.1667    2.0884    0.0021 C.ar      1 <0>        -0.0626
      3 C3          2.3848    1.4070   -0.0132 C.ar      1 <0>        -0.0966
      4 C4          2.3966    0.0113   -0.0208 C.ar      1 <0>        -0.0809
      5 C5          1.2061   -0.6856   -0.0132 C.ar      1 <0>        -0.1154
      6 C6          0.0021   -0.0041    0.0020 C.ar      1 <0>        -0.0865
      7 C7         -1.2946   -0.7719    0.0103 C.3       1 <0>        -0.0772
      8 C8         -1.3540   -1.6591    1.2554 C.3       1 <0>        -0.1077
      9 C9         -2.7204   -2.3435    1.3293 C.3       1 <0>        -0.1187
     10 C10        -2.7798   -3.2307    2.5744 C.3       1 <0>        -0.0245
     11 C11        -4.1256   -3.9048    2.6471 C.2       1 <0>        -0.4007
     12 C12        -4.3033   -5.1854    2.1432 C.2       1 <0>         0.4896
     13 N1         -5.5061   -5.7670    2.2177 N.2       1 <0>        -0.6246
     14 C13        -6.5306   -5.1456    2.7625 C.2       1 <0>         0.6632
     15 N2         -6.4081   -3.8890    3.2706 N.am      1 <0>        -0.6620
     16 C14        -5.2181   -3.2541    3.2290 C.2       1 <0>         0.5562
     17 O1         -5.0985   -2.1287    3.6872 O.2       1 <0>        -0.5460
     18 N3         -7.7447   -5.7763    2.8190 N.pl3     1 <0>        -0.8226
     19 N4         -3.2436   -5.8564    1.5669 N.pl3     1 <0>        -0.8262
     20 C15        -1.3766   -1.6326   -1.2241 C.2       1 <0>         0.3409
     21 O2         -1.0263   -2.7873   -1.1794 O.2       1 <0>        -0.3697
     22 C16        -1.8959   -1.0521   -2.5142 C.3       1 <0>         0.4154
     23 F1         -1.8771   -2.0355   -3.5090 F         1 <0>        -0.1674
     24 F2         -3.2073   -0.6017   -2.3284 F         1 <0>        -0.1695
     25 F3         -1.0853    0.0199   -2.9028 F         1 <0>        -0.1558
     26 C17         3.6569    2.1603   -0.0218 C.2       1 <0>         0.5418
     27 O3          3.6435    3.3757   -0.0155 O.2       1 <0>        -0.5497
     28 N5          4.8314    1.4994   -0.0366 N.am      1 <0>        -0.6737
     29 C18         6.0919    2.2459   -0.0451 C.3       1 <0>         0.0732
     30 C19         7.1909    1.3839   -0.6698 C.3       1 <0>        -0.0825
     31 C20         6.8626    1.1271   -2.1419 C.3       1 <0>        -0.1775
     32 C21         7.9450    0.2781   -2.7573 C.2       1 <0>         0.4911
     33 O4          8.8913   -0.0876   -2.0810 O.co2     1 <0>        -0.6976
     34 O5          7.8745   -0.0430   -3.9313 O.co2     1 <0>        -0.7192
     35 C22         6.4748    2.6012    1.3685 C.2       1 <0>         0.4985
     36 O6          6.1458    1.8742    2.2903 O.co2     1 <0>        -0.6982
     37 O7          7.1137    3.6157    1.5903 O.co2     1 <0>        -0.7003
     38 H1         -0.9598    1.9054    0.0260 H         1 <0>         0.1289
     39 H2          1.1508    3.1682    0.0077 H         1 <0>         0.1395
     40 H3          3.3358   -0.5219   -0.0330 H         1 <0>         0.1340
     41 H4          1.2138   -1.7656   -0.0191 H         1 <0>         0.1273
     42 H5         -2.1308   -0.0728    0.0221 H         1 <0>         0.1172
     43 H6         -0.5712   -2.4156    1.2002 H         1 <0>         0.0808
     44 H7         -1.2057   -1.0470    2.1451 H         1 <0>         0.0893
     45 H8         -3.5032   -1.5870    1.3845 H         1 <0>         0.0675
     46 H9         -2.8687   -2.9556    0.4396 H         1 <0>         0.0536
     47 H10        -1.9970   -3.9872    2.5192 H         1 <0>         0.0583
     48 H11        -2.6315   -2.6186    3.4640 H         1 <0>         0.0748
     49 H12        -7.8432   -6.6718    2.4595 H         1 <0>         0.4274
     50 H13        -8.5063   -5.3275    3.2183 H         1 <0>         0.4147
     51 H14        -2.3726   -5.4328    1.5136 H         1 <0>         0.4178
     52 H15        -3.3700   -6.7515    1.2152 H         1 <0>         0.4046
     53 H16         4.8421    0.5294   -0.0416 H         1 <0>         0.3917
     54 H17         5.9699    3.1583   -0.6287 H         1 <0>         0.0786
     55 H18         8.1462    1.9034   -0.5958 H         1 <0>         0.0732
     56 H19         7.2523    0.4333   -0.1400 H         1 <0>         0.0604
     57 H20         5.9072    0.6076   -2.2159 H         1 <0>         0.0508
     58 H21         6.8012    2.0777   -2.6717 H         1 <0>         0.0529
     59 H22        -7.1770   -3.4503    3.6672 H         1 <0>         0.4086
@<TRIPOS>BOND
     1    1    6 ar
     2    1    2 ar
     3    1   38 1
     4    2    3 ar
     5    2   39 1
     6    3    4 ar
     7    3   26 1
     8    4    5 ar
     9    4   40 1
    10    5    6 ar
    11    5   41 1
    12    6    7 1
    13    7    8 1
    14    7   20 1
    15    7   42 1
    16    8    9 1
    17    8   43 1
    18    8   44 1
    19    9   10 1
    20    9   45 1
    21    9   46 1
    22   10   11 1
    23   10   47 1
    24   10   48 1
    25   11   16 1
    26   11   12 2
    27   12   13 1
    28   12   19 1
    29   13   14 2
    30   14   15 1
    31   14   18 1
    32   15   16 am
    33   15   59 1
    34   16   17 2
    35   18   49 1
    36   18   50 1
    37   19   51 1
    38   19   52 1
    39   20   21 2
    40   20   22 1
    41   22   23 1
    42   22   24 1
    43   22   25 1
    44   26   27 2
    45   26   28 am
    46   28   29 1
    47   28   53 1
    48   29   30 1
    49   29   35 1
    50   29   54 1
    51   30   31 1
    52   30   55 1
    53   30   56 1
    54   31   32 1
    55   31   57 1
    56   31   58 1
    57   32   33 2
    58   32   34 1
    59   35   36 2
    60   35   37 1
@<TRIPOS>MOLECULE
CHEMBL379094__1
   59    60     0     0     0
SMALL
USER_CHARGES

@<TRIPOS>ATOM
      1 C1         -0.0167    1.3794    0.0096 C.ar      1 <0>        -0.1086
      2 C2          1.1667    2.0884    0.0021 C.ar      1 <0>        -0.0629
      3 C3          2.3848    1.4070   -0.0132 C.ar      1 <0>        -0.0941
      4 C4          2.3966    0.0113   -0.0208 C.ar      1 <0>        -0.0819
      5 C5          1.2061   -0.6856   -0.0132 C.ar      1 <0>        -0.1155
      6 C6          0.0021   -0.0041    0.0020 C.ar      1 <0>        -0.0876
      7 C7         -1.2946   -0.7719    0.0103 C.3       1 <0>        -0.0770
      8 C8         -1.3540   -1.6591    1.2554 C.3       1 <0>        -0.1075
      9 C9         -2.7204   -2.3435    1.3293 C.3       1 <0>        -0.1187
     10 C10        -2.7798   -3.2307    2.5744 C.3       1 <0>        -0.0246
     11 C11        -4.1256   -3.9048    2.6471 C.2       1 <0>        -0.4005
     12 C12        -4.3033   -5.1854    2.1432 C.2       1 <0>         0.4895
     13 N1         -5.5061   -5.7670    2.2177 N.2       1 <0>        -0.6248
     14 C13        -6.5306   -5.1456    2.7625 C.2       1 <0>         0.6632
     15 N2         -6.4081   -3.8890    3.2706 N.am      1 <0>        -0.6620
     16 C14        -5.2181   -3.2541    3.2290 C.2       1 <0>         0.5563
     17 O1         -5.0985   -2.1287    3.6872 O.2       1 <0>        -0.5460
     18 N3         -7.7447   -5.7763    2.8190 N.pl3     1 <0>        -0.8226
     19 N4         -3.2436   -5.8564    1.5669 N.pl3     1 <0>        -0.8262
     20 C15        -1.3766   -1.6326   -1.2241 C.2       1 <0>         0.3413
     21 O2         -1.0263   -2.7873   -1.1794 O.2       1 <0>        -0.3705
     22 C16        -1.8959   -1.0521   -2.5142 C.3       1 <0>         0.4151
     23 F1         -1.8771   -2.0355   -3.5090 F         1 <0>        -0.1679
     24 F2         -3.2073   -0.6017   -2.3284 F         1 <0>        -0.1696
     25 F3         -1.0853    0.0199   -2.9028 F         1 <0>        -0.1549
     26 C17         3.6569    2.1603   -0.0218 C.2       1 <0>         0.5486
     27 O3          3.6435    3.3757   -0.0155 O.2       1 <0>        -0.5512
     28 N5          4.8314    1.4994   -0.0366 N.am      1 <0>        -0.6742
     29 C18         6.0919    2.2459   -0.0451 C.3       1 <0>         0.0722
     30 C19         7.2027    1.3778    0.5494 C.3       1 <0>        -0.0806
     31 C20         6.9032    1.1060    2.0250 C.3       1 <0>        -0.1779
     32 C21         7.9973    0.2510    2.6105 C.2       1 <0>         0.4909
     33 O4          8.9302   -0.1078    1.9123 O.co2     1 <0>        -0.6971
     34 O5          7.9496   -0.0820    3.7824 O.co2     1 <0>        -0.7199
     35 C22         6.4472    2.6155   -1.4622 C.2       1 <0>         0.4957
     36 O6          5.7154    2.2860   -2.3799 O.co2     1 <0>        -0.6965
     37 O7          7.4666    3.2441   -1.6909 O.co2     1 <0>        -0.6993
     38 H1         -0.9598    1.9054    0.0260 H         1 <0>         0.1285
     39 H2          1.1508    3.1682    0.0077 H         1 <0>         0.1392
     40 H3          3.3358   -0.5219   -0.0330 H         1 <0>         0.1330
     41 H4          1.2138   -1.7656   -0.0191 H         1 <0>         0.1267
     42 H5         -2.1308   -0.0728    0.0221 H         1 <0>         0.1170
     43 H6         -0.5712   -2.4156    1.2002 H         1 <0>         0.0808
     44 H7         -1.2057   -1.0470    2.1451 H         1 <0>         0.0892
     45 H8         -3.5032   -1.5870    1.3845 H         1 <0>         0.0675
     46 H9         -2.8687   -2.9556    0.4396 H         1 <0>         0.0535
     47 H10        -1.9970   -3.9872    2.5192 H         1 <0>         0.0585
     48 H11        -2.6315   -2.6186    3.4640 H         1 <0>         0.0749
     49 H12        -7.8432   -6.6718    2.4595 H         1 <0>         0.4273
     50 H13        -8.5063   -5.3275    3.2183 H         1 <0>         0.4147
     51 H14        -2.3726   -5.4328    1.5136 H         1 <0>         0.4179
     52 H15        -3.3700   -6.7515    1.2152 H         1 <0>         0.4045
     53 H16         4.8421    0.5294   -0.0416 H         1 <0>         0.3895
     54 H17         5.9814    3.1523    0.5501 H         1 <0>         0.0788
     55 H18         7.2537    0.4325    0.0090 H         1 <0>         0.0551
     56 H19         8.1565    1.8981    0.4621 H         1 <0>         0.0796
     57 H20         6.8522    2.0513    2.5654 H         1 <0>         0.0524
     58 H21         5.9494    0.5857    2.1123 H         1 <0>         0.0500
     59 H22        -7.1770   -3.4503    3.6672 H         1 <0>         0.4086
@<TRIPOS>BOND
     1    1    6 ar
     2    1    2 ar
     3    1   38 1
     4    2    3 ar
     5    2   39 1
     6    3    4 ar
     7    3   26 1
     8    4    5 ar
     9    4   40 1
    10    5    6 ar
    11    5   41 1
    12    6    7 1
    13    7    8 1
    14    7   20 1
    15    7   42 1
    16    8    9 1
    17    8   43 1
    18    8   44 1
    19    9   10 1
    20    9   45 1
    21    9   46 1
    22   10   11 1
    23   10   47 1
    24   10   48 1
    25   11   16 1
    26   11   12 2
    27   12   13 1
    28   12   19 1
    29   13   14 2
    30   14   15 1
    31   14   18 1
    32   15   16 am
    33   15   59 1
    34   16   17 2
    35   18   49 1
    36   18   50 1
    37   19   51 1
    38   19   52 1
    39   20   21 2
    40   20   22 1
    41   22   23 1
    42   22   24 1
    43   22   25 1
    44   26   27 2
    45   26   28 am
    46   28   29 1
    47   28   53 1
    48   29   30 1
    49   29   35 1
    50   29   54 1
    51   30   31 1
    52   30   55 1
    53   30   56 1
    54   31   32 1
    55   31   57 1
    56   31   58 1
    57   32   33 2
    58   32   34 1
    59   35   36 2
    60   35   37 1
@<TRIPOS>MOLECULE
CHEMBL379094__2
   59    60     0     0     0
SMALL
USER_CHARGES

@<TRIPOS>ATOM
      1 C1         -0.4552    1.6035    0.0461 C.ar      1 <0>        -0.1103
      2 C2          0.5806    2.5135    0.0950 C.ar      1 <0>        -0.0635
      3 C3          1.9009    2.0621    0.1301 C.ar      1 <0>        -0.0968
      4 C4          2.1640    0.6914    0.1154 C.ar      1 <0>        -0.0805
      5 C5          1.1191   -0.2079    0.0663 C.ar      1 <0>        -0.1144
      6 C6         -0.1874    0.2461    0.0318 C.ar      1 <0>        -0.0869
      7 C7         -1.3239   -0.7421   -0.0217 C.3       1 <0>        -0.0757
      8 C8         -1.1950   -1.5998   -1.2822 C.3       1 <0>        -0.1087
      9 C9         -2.4232   -2.5029   -1.4123 C.3       1 <0>        -0.1184
     10 C10        -2.2604   -3.4127   -2.6315 C.3       1 <0>        -0.0253
     11 C11        -3.4700   -4.3023   -2.7597 C.2       1 <0>        -0.3984
     12 C12        -4.5234   -3.9480   -3.5905 C.2       1 <0>         0.4881
     13 N1         -5.5887   -4.7517   -3.6910 N.2       1 <0>        -0.6255
     14 C13        -5.6582   -5.8782   -3.0138 C.2       1 <0>         0.6635
     15 N2         -4.6519   -6.2701   -2.1856 N.am      1 <0>        -0.6619
     16 C14        -3.5500   -5.5034   -2.0481 C.2       1 <0>         0.5539
     17 O1         -2.6404   -5.8501   -1.3111 O.2       1 <0>        -0.5407
     18 N3         -6.7662   -6.6722   -3.1450 N.pl3     1 <0>        -0.8226
     19 N4         -4.4730   -2.7712   -4.3101 N.pl3     1 <0>        -0.8281
     20 C15        -1.2765   -1.6286    1.1961 C.2       1 <0>         0.3348
     21 O2         -0.6778   -2.6765    1.1571 O.2       1 <0>        -0.3599
     22 C16        -1.9764   -1.2072    2.4624 C.3       1 <0>         0.4156
     23 F1         -1.8941   -2.2372    3.4056 F         1 <0>        -0.1672
     24 F2         -1.3644   -0.0574    2.9730 F         1 <0>        -0.1566
     25 F3         -3.3203   -0.9358    2.1843 F         1 <0>        -0.1706
     26 C17         3.0159    3.0316    0.1821 C.2       1 <0>         0.5418
     27 O3          2.7837    4.2247    0.1944 O.2       1 <0>        -0.5504
     28 N5          4.2896    2.5926    0.2159 N.am      1 <0>        -0.6735
     29 C18         5.3945    3.5533    0.2674 C.3       1 <0>         0.0733
     30 C19         6.6562    2.9111   -0.3126 C.3       1 <0>        -0.0829
     31 C20         6.4427    2.6192   -1.7992 C.3       1 <0>        -0.1771
     32 C21         7.6855    1.9866   -2.3706 C.2       1 <0>         0.4911
     33 O4          8.6524    1.7877   -1.6550 O.co2     1 <0>        -0.6973
     34 O5          7.7241    1.6738   -3.5483 O.co2     1 <0>        -0.7194
     35 C22         5.6465    3.9527    1.6985 C.2       1 <0>         0.4982
     36 O6          5.4146    3.1662    2.6008 O.co2     1 <0>        -0.6979
     37 O7          6.0823    5.0623    1.9540 O.co2     1 <0>        -0.7005
     38 H1         -1.4774    1.9513    0.0234 H         1 <0>         0.1282
     39 H2          0.3703    3.5727    0.1058 H         1 <0>         0.1391
     40 H3          3.1834    0.3357    0.1419 H         1 <0>         0.1342
     41 H4          1.3213   -1.2688    0.0548 H         1 <0>         0.1287
     42 H5         -2.2720   -0.2047   -0.0433 H         1 <0>         0.1151
     43 H6         -1.1257   -0.9526   -2.1565 H         1 <0>         0.0865
     44 H7         -0.2976   -2.2146   -1.2131 H         1 <0>         0.0842
     45 H8         -2.5224   -3.1129   -0.5144 H         1 <0>         0.0610
     46 H9         -3.3150   -1.8881   -1.5342 H         1 <0>         0.0597
     47 H10        -2.1612   -2.8027   -3.5294 H         1 <0>         0.0590
     48 H11        -1.3686   -4.0275   -2.5096 H         1 <0>         0.0749
     49 H12        -7.4894   -6.4023   -3.7324 H         1 <0>         0.4271
     50 H13        -6.8278   -7.5044   -2.6506 H         1 <0>         0.4149
     51 H14        -3.7000   -2.1899   -4.2355 H         1 <0>         0.4167
     52 H15        -5.2104   -2.5254   -4.8903 H         1 <0>         0.4042
     53 H16         4.4749    1.6405    0.2060 H         1 <0>         0.3919
     54 H17         5.1353    4.4367   -0.3161 H         1 <0>         0.0787
     55 H18         7.4985    3.5926   -0.1935 H         1 <0>         0.0732
     56 H19         6.8650    1.9799    0.2142 H         1 <0>         0.0606
     57 H20         5.6005    1.9376   -1.9184 H         1 <0>         0.0510
     58 H21         6.2339    3.5503   -2.3260 H         1 <0>         0.0528
     59 H22        -4.7252   -7.1043   -1.6961 H         1 <0>         0.4088
@<TRIPOS>BOND
     1    1    6 ar
     2    1    2 ar
     3    1   38 1
     4    2    3 ar
     5    2   39 1
     6    3    4 ar
     7    3   26 1
     8    4    5 ar
     9    4   40 1
    10    5    6 ar
    11    5   41 1
    12    6    7 1
    13    7    8 1
    14    7   20 1
    15    7   42 1
    16    8    9 1
    17    8   43 1
    18    8   44 1
    19    9   10 1
    20    9   45 1
    21    9   46 1
    22   10   11 1
    23   10   47 1
    24   10   48 1
    25   11   16 1
    26   11   12 2
    27   12   13 1
    28   12   19 1
    29   13   14 2
    30   14   15 1
    31   14   18 1
    32   15   16 am
    33   15   59 1
    34   16   17 2
    35   18   49 1
    36   18   50 1
    37   19   51 1
    38   19   52 1
    39   20   21 2
    40   20   22 1
    41   22   23 1
    42   22   24 1
    43   22   25 1
    44   26   27 2
    45   26   28 am
    46   28   29 1
    47   28   53 1
    48   29   30 1
    49   29   35 1
    50   29   54 1
    51   30   31 1
    52   30   55 1
    53   30   56 1
    54   31   32 1
    55   31   57 1
    56   31   58 1
    57   32   33 2
    58   32   34 1
    59   35   36 2
    60   35   37 1
@<TRIPOS>MOLECULE
CHEMBL379094__3
   59    60     0     0     0
SMALL
USER_CHARGES

@<TRIPOS>ATOM
      1 C1         -0.4552    1.6035    0.0461 C.ar      1 <0>        -0.1101
      2 C2          0.5806    2.5135    0.0950 C.ar      1 <0>        -0.0638
      3 C3          1.9009    2.0621    0.1301 C.ar      1 <0>        -0.0943
      4 C4          2.1640    0.6914    0.1154 C.ar      1 <0>        -0.0814
      5 C5          1.1191   -0.2079    0.0663 C.ar      1 <0>        -0.1146
      6 C6         -0.1874    0.2461    0.0318 C.ar      1 <0>        -0.0879
      7 C7         -1.3239   -0.7421   -0.0217 C.3       1 <0>        -0.0755
      8 C8         -1.1950   -1.5998   -1.2822 C.3       1 <0>        -0.1088
      9 C9         -2.4232   -2.5029   -1.4123 C.3       1 <0>        -0.1184
     10 C10        -2.2604   -3.4127   -2.6315 C.3       1 <0>        -0.0251
     11 C11        -3.4700   -4.3023   -2.7597 C.2       1 <0>        -0.3985
     12 C12        -4.5234   -3.9480   -3.5905 C.2       1 <0>         0.4881
     13 N1         -5.5887   -4.7517   -3.6910 N.2       1 <0>        -0.6255
     14 C13        -5.6582   -5.8782   -3.0138 C.2       1 <0>         0.6635
     15 N2         -4.6519   -6.2701   -2.1856 N.am      1 <0>        -0.6619
     16 C14        -3.5500   -5.5034   -2.0481 C.2       1 <0>         0.5539
     17 O1         -2.6404   -5.8501   -1.3111 O.2       1 <0>        -0.5407
     18 N3         -6.7662   -6.6722   -3.1450 N.pl3     1 <0>        -0.8226
     19 N4         -4.4730   -2.7712   -4.3101 N.pl3     1 <0>        -0.8281
     20 C15        -1.2765   -1.6286    1.1961 C.2       1 <0>         0.3346
     21 O2         -0.6778   -2.6765    1.1571 O.2       1 <0>        -0.3598
     22 C16        -1.9764   -1.2072    2.4624 C.3       1 <0>         0.4158
     23 F1         -1.8941   -2.2372    3.4056 F         1 <0>        -0.1670
     24 F2         -1.3644   -0.0574    2.9730 F         1 <0>        -0.1572
     25 F3         -3.3203   -0.9358    2.1843 F         1 <0>        -0.1706
     26 C17         3.0159    3.0316    0.1821 C.2       1 <0>         0.5487
     27 O3          2.7837    4.2247    0.1944 O.2       1 <0>        -0.5519
     28 N5          4.2896    2.5926    0.2159 N.am      1 <0>        -0.6740
     29 C18         5.3945    3.5533    0.2674 C.3       1 <0>         0.0722
     30 C19         6.6170    2.8908    0.9058 C.3       1 <0>        -0.0806
     31 C20         6.3085    2.5501    2.3652 C.3       1 <0>        -0.1782
     32 C21         7.5126    1.8976    2.9940 C.2       1 <0>         0.4909
     33 O4          8.5238    1.7215    2.3360 O.co2     1 <0>        -0.6972
     34 O5          7.4756    1.5459    4.1608 O.co2     1 <0>        -0.7197
     35 C22         5.7376    3.9996   -1.1305 C.2       1 <0>         0.4962
     36 O6          5.1169    3.5563   -2.0816 O.co2     1 <0>        -0.6969
     37 O7          6.6360    4.8040   -1.3102 O.co2     1 <0>        -0.6991
     38 H1         -1.4774    1.9513    0.0234 H         1 <0>         0.1278
     39 H2          0.3703    3.5727    0.1058 H         1 <0>         0.1388
     40 H3          3.1834    0.3357    0.1419 H         1 <0>         0.1332
     41 H4          1.3213   -1.2688    0.0548 H         1 <0>         0.1281
     42 H5         -2.2720   -0.2047   -0.0433 H         1 <0>         0.1149
     43 H6         -1.1257   -0.9526   -2.1565 H         1 <0>         0.0867
     44 H7         -0.2976   -2.2146   -1.2131 H         1 <0>         0.0839
     45 H8         -2.5224   -3.1129   -0.5144 H         1 <0>         0.0610
     46 H9         -3.3150   -1.8881   -1.5342 H         1 <0>         0.0597
     47 H10        -2.1612   -2.8027   -3.5294 H         1 <0>         0.0590
     48 H11        -1.3686   -4.0275   -2.5096 H         1 <0>         0.0747
     49 H12        -7.4894   -6.4023   -3.7324 H         1 <0>         0.4271
     50 H13        -6.8278   -7.5044   -2.6506 H         1 <0>         0.4149
     51 H14        -3.7000   -2.1899   -4.2355 H         1 <0>         0.4168
     52 H15        -5.2104   -2.5254   -4.8903 H         1 <0>         0.4042
     53 H16         4.4749    1.6405    0.2060 H         1 <0>         0.3897
     54 H17         5.0973    4.4171    0.8620 H         1 <0>         0.0787
     55 H18         6.8602    1.9775    0.3630 H         1 <0>         0.0553
     56 H19         7.4644    3.5751    0.8638 H         1 <0>         0.0797
     57 H20         6.0652    3.4635    2.9080 H         1 <0>         0.0524
     58 H21         5.4611    1.8658    2.4072 H         1 <0>         0.0499
     59 H22        -4.7252   -7.1043   -1.6961 H         1 <0>         0.4088
@<TRIPOS>BOND
     1    1    6 ar
     2    1    2 ar
     3    1   38 1
     4    2    3 ar
     5    2   39 1
     6    3    4 ar
     7    3   26 1
     8    4    5 ar
     9    4   40 1
    10    5    6 ar
    11    5   41 1
    12    6    7 1
    13    7    8 1
    14    7   20 1
    15    7   42 1
    16    8    9 1
    17    8   43 1
    18    8   44 1
    19    9   10 1
    20    9   45 1
    21    9   46 1
    22   10   11 1
    23   10   47 1
    24   10   48 1
    25   11   16 1
    26   11   12 2
    27   12   13 1
    28   12   19 1
    29   13   14 2
    30   14   15 1
    31   14   18 1
    32   15   16 am
    33   15   59 1
    34   16   17 2
    35   18   49 1
    36   18   50 1
    37   19   51 1
    38   19   52 1
    39   20   21 2
    40   20   22 1
    41   22   23 1
    42   22   24 1
    43   22   25 1
    44   26   27 2
    45   26   28 am
    46   28   29 1
    47   28   53 1
    48   29   30 1
    49   29   35 1
    50   29   54 1
    51   30   31 1
    52   30   55 1
    53   30   56 1
    54   31   32 1
    55   31   57 1
    56   31   58 1
    57   32   33 2
    58   32   34 1
    59   35   36 2
    60   35   37 1
@<TRIPOS>MOLECULE
CHEMBL84605
   55    56     0     0     0
SMALL
USER_CHARGES

@<TRIPOS>ATOM
      1 C1         -0.4047    1.6357    0.0247 C.3       1 <0>        -0.1378
      2 C2         -0.5157    0.1099    0.0443 C.3       1 <0>        -0.0652
      3 C3          0.2117   -0.4620   -1.1451 C.2       1 <0>        -0.0571
      4 C4         -0.4336   -0.7649   -2.3201 C.2       1 <0>        -0.1704
      5 C5          0.2818   -1.2767   -3.3520 C.2       1 <0>        -0.2160
      6 S1          1.8521   -1.3635   -2.7613 S.3       1 <0>         0.2052
      7 C6          1.5756   -0.7107   -1.1256 C.2       1 <0>        -0.2148
      8 C7          2.5388   -0.4951   -0.0419 C.2       1 <0>         0.5893
      9 O1          2.1654   -0.0361    1.0216 O.2       1 <0>        -0.5362
     10 N1          3.8378   -0.8050   -0.2232 N.am      1 <0>        -0.6744
     11 C8          4.8004   -0.5895    0.8599 C.3       1 <0>         0.0750
     12 H1          4.3193   -0.7861    1.8180 H         1 <0>         0.0793
     13 C9          5.9888   -1.5365    0.6821 C.3       1 <0>        -0.0830
     14 C10         5.5166   -2.9830    0.8421 C.3       1 <0>        -0.1776
     15 C11         6.6872   -3.9159    0.6669 C.2       1 <0>         0.4915
     16 O2          7.7963   -3.4655    0.4355 O.co2     1 <0>        -0.6974
     17 O3          6.5251   -5.1209    0.7566 O.co2     1 <0>        -0.7196
     18 C12         5.2852    0.8370    0.8247 C.2       1 <0>         0.4988
     19 O4          5.6207    1.3925    1.8568 O.co2     1 <0>        -0.7008
     20 O5          5.3418    1.4355   -0.2360 O.co2     1 <0>        -0.6968
     21 C13        -0.2176   -1.6768   -4.7164 C.3       1 <0>        -0.0227
     22 C14        -0.1310   -0.4778   -5.6629 C.3       1 <0>        -0.0991
     23 C15        -0.6380   -0.8840   -7.0481 C.3       1 <0>        -0.1033
     24 S2         -0.5354    0.5375   -8.1703 S.3       1 <0>        -0.0906
     25 C16        -1.0251   -0.1158   -9.7318 C.2       1 <0>        -0.4289
     26 C17        -2.1961    0.3140  -10.3446 C.2       1 <0>         0.5301
     27 N2         -2.5493   -0.1957  -11.5310 N.2       1 <0>        -0.6257
     28 C18        -1.8074   -1.0999  -12.1326 C.2       1 <0>         0.6773
     29 N3         -0.6519   -1.5552  -11.5759 N.am      1 <0>        -0.6602
     30 C19        -0.2382   -1.0758  -10.3842 C.2       1 <0>         0.5632
     31 O6          0.8007   -1.4748   -9.8803 O.2       1 <0>        -0.5244
     32 N4         -2.2073   -1.5953  -13.3480 N.pl3     1 <0>        -0.8183
     33 N5         -2.9939    1.2645   -9.7308 N.pl3     1 <0>        -0.8152
     34 H2          0.6456    1.9242    0.0679 H         1 <0>         0.0658
     35 H3         -0.8497    2.0206   -0.8929 H         1 <0>         0.0439
     36 H4         -0.9308    2.0494    0.8850 H         1 <0>         0.0523
     37 H5         -0.0707   -0.2750    0.9619 H         1 <0>         0.0913
     38 H6         -1.5660   -0.1786    0.0011 H         1 <0>         0.0588
     39 H7         -1.4959   -0.5978   -2.4201 H         1 <0>         0.1266
     40 H8          4.1354   -1.1709   -1.0709 H         1 <0>         0.3908
     41 H9          6.4155   -1.4015   -0.3118 H         1 <0>         0.0609
     42 H10         6.7452   -1.3158    1.4352 H         1 <0>         0.0735
     43 H11         5.0900   -3.1181    1.8360 H         1 <0>         0.0528
     44 H12         4.7602   -3.2038    0.0890 H         1 <0>         0.0511
     45 H13         0.3958   -2.4904   -5.1036 H         1 <0>         0.0792
     46 H14        -1.2537   -2.0067   -4.6417 H         1 <0>         0.0805
     47 H15        -0.7444    0.3358   -5.2757 H         1 <0>         0.0735
     48 H16         0.9052   -0.1479   -5.7376 H         1 <0>         0.0795
     49 H17        -0.0247   -1.6976   -7.4354 H         1 <0>         0.0867
     50 H18        -1.6742   -1.2139   -6.9734 H         1 <0>         0.0729
     51 H19        -3.0291   -1.2785  -13.7543 H         1 <0>         0.4286
     52 H20        -1.6682   -2.2625  -13.8010 H         1 <0>         0.4169
     53 H21        -2.6957    1.6933   -8.9134 H         1 <0>         0.4238
     54 H22        -3.8510    1.5017  -10.1181 H         1 <0>         0.4049
     55 H23        -0.1222   -2.2230  -12.0389 H         1 <0>         0.4116
@<TRIPOS>BOND
     1    1    2 1
     2    1   34 1
     3    1   35 1
     4    1   36 1
     5    2    3 1
     6    2   37 1
     7    2   38 1
     8    3    7 2
     9    3    4 1
    10    4    5 2
    11    4   39 1
    12    5    6 1
    13    5   21 1
    14    6    7 1
    15    7    8 1
    16    8    9 2
    17    8   10 am
    18   10   11 1
    19   10   40 1
    20   11   12 1
    21   11   13 1
    22   11   18 1
    23   13   14 1
    24   13   41 1
    25   13   42 1
    26   14   15 1
    27   14   43 1
    28   14   44 1
    29   15   16 2
    30   15   17 1
    31   18   19 2
    32   18   20 1
    33   21   22 1
    34   21   45 1
    35   21   46 1
    36   22   23 1
    37   22   47 1
    38   22   48 1
    39   23   24 1
    40   23   49 1
    41   23   50 1
    42   24   25 1
    43   25   30 1
    44   25   26 2
    45   26   27 1
    46   26   33 1
    47   27   28 2
    48   28   29 1
    49   28   32 1
    50   29   30 am
    51   29   55 1
    52   30   31 2
    53   32   51 1
    54   32   52 1
    55   33   53 1
    56   33   54 1
@<TRIPOS>MOLECULE
CHEMBL314116
   54    56     0     0     0
SMALL
USER_CHARGES

@<TRIPOS>ATOM
      1 C1         -0.0167    1.3794    0.0096 C.ar      1 <0>        -0.1285
      2 C2          1.1667    2.0884    0.0021 C.ar      1 <0>        -0.0645
      3 C3          2.3848    1.4070   -0.0132 C.ar      1 <0>        -0.1078
      4 C4          2.3966    0.0113   -0.0208 C.ar      1 <0>        -0.0832
      5 C5          1.2061   -0.6856   -0.0132 C.ar      1 <0>        -0.1235
      6 C6          0.0021   -0.0041    0.0020 C.ar      1 <0>        -0.0794
      7 C7         -1.2946   -0.7719    0.0103 C.3       1 <0>        -0.0782
      8 C8         -1.7472   -1.0241   -1.4293 C.3       1 <0>        -0.1084
      9 C9         -3.0637   -1.8037   -1.4209 C.3       1 <0>        -0.1037
     10 C10        -3.4620   -2.1519   -2.8560 C.3       1 <0>        -0.0527
     11 C11        -4.8571   -2.7114   -2.8893 C.ar      1 <0>        -0.2964
     12 C12        -5.2685   -3.4672   -3.9715 C.ar      1 <0>         0.2124
     13 N1         -6.5011   -3.9525   -3.9896 N.ar      1 <0>        -0.6070
     14 C13        -7.3392   -3.7229   -2.9893 C.ar      1 <0>         0.5926
     15 N2         -6.9823   -3.0043   -1.9353 N.ar      1 <0>        -0.6270
     16 C14        -5.7588   -2.4898   -1.8529 C.ar      1 <0>         0.4783
     17 N3         -5.3955   -1.7470   -0.7407 N.pl3     1 <0>        -0.7140
     18 C15        -4.1675   -0.9415   -0.7948 C.3       1 <0>         0.1249
     19 N4         -8.6190   -4.2464   -3.0474 N.pl3     1 <0>        -0.8261
     20 C16         3.6569    2.1603   -0.0218 C.2       1 <0>         0.5495
     21 O1          3.6435    3.3757   -0.0155 O.2       1 <0>        -0.5547
     22 N5          4.8314    1.4994   -0.0366 N.am      1 <0>        -0.6754
     23 C17         6.0919    2.2459   -0.0451 C.3       1 <0>         0.0723
     24 H1          5.9814    3.1523    0.5501 H         1 <0>         0.0781
     25 C18         7.2027    1.3778    0.5494 C.3       1 <0>        -0.0805
     26 C19         6.9032    1.1060    2.0250 C.3       1 <0>        -0.1779
     27 C20         7.9973    0.2510    2.6105 C.2       1 <0>         0.4909
     28 O2          8.9302   -0.1078    1.9123 O.co2     1 <0>        -0.6969
     29 O3          7.9496   -0.0820    3.7824 O.co2     1 <0>        -0.7202
     30 C21         6.4472    2.6155   -1.4622 C.2       1 <0>         0.4957
     31 O4          5.7154    2.2860   -2.3799 O.co2     1 <0>        -0.6970
     32 O5          7.4666    3.2441   -1.6909 O.co2     1 <0>        -0.6996
     33 H2         -0.9598    1.9054    0.0260 H         1 <0>         0.1209
     34 H3          1.1508    3.1682    0.0077 H         1 <0>         0.1330
     35 H4          3.3358   -0.5219   -0.0330 H         1 <0>         0.1285
     36 H5          1.2138   -1.7656   -0.0191 H         1 <0>         0.1230
     37 H6         -1.1489   -1.7256    0.5176 H         1 <0>         0.0721
     38 H7         -2.0557   -0.1941    0.5345 H         1 <0>         0.0704
     39 H8         -1.8929   -0.0704   -1.9367 H         1 <0>         0.0706
     40 H9         -0.9861   -1.6019   -1.9536 H         1 <0>         0.0749
     41 H10        -2.9423   -2.7189   -0.8414 H         1 <0>         0.0803
     42 H11        -3.4192   -1.2528   -3.4706 H         1 <0>         0.0736
     43 H12        -2.7671   -2.8914   -3.2540 H         1 <0>         0.0784
     44 H13        -4.5933   -3.6594   -4.7922 H         1 <0>         0.1651
     45 H14        -5.9427   -1.7586    0.0602 H         1 <0>         0.4074
     46 H15        -3.8765   -0.6450    0.2130 H         1 <0>         0.0926
     47 H16        -4.3346   -0.0552   -1.4067 H         1 <0>         0.0679
     48 H17        -8.8928   -4.7741   -3.8138 H         1 <0>         0.4127
     49 H18        -9.2421   -4.0856   -2.3216 H         1 <0>         0.4107
     50 H19         4.8421    0.5294   -0.0416 H         1 <0>         0.3892
     51 H20         7.2537    0.4325    0.0090 H         1 <0>         0.0551
     52 H21         8.1565    1.8981    0.4621 H         1 <0>         0.0794
     53 H22         6.8522    2.0513    2.5654 H         1 <0>         0.0523
     54 H23         5.9494    0.5857    2.1123 H         1 <0>         0.0499
@<TRIPOS>BOND
     1    1    6 ar
     2    1    2 ar
     3    1   33 1
     4    2    3 ar
     5    2   34 1
     6    3    4 ar
     7    3   20 1
     8    4    5 ar
     9    4   35 1
    10    5    6 ar
    11    5   36 1
    12    6    7 1
    13    7    8 1
    14    7   37 1
    15    7   38 1
    16    8    9 1
    17    8   39 1
    18    8   40 1
    19    9   18 1
    20    9   10 1
    21    9   41 1
    22   10   11 1
    23   10   42 1
    24   10   43 1
    25   11   16 ar
    26   11   12 ar
    27   12   13 ar
    28   12   44 1
    29   13   14 ar
    30   14   15 ar
    31   14   19 1
    32   15   16 ar
    33   16   17 1
    34   17   18 1
    35   17   45 1
    36   18   46 1
    37   18   47 1
    38   19   48 1
    39   19   49 1
    40   20   21 2
    41   20   22 am
    42   22   23 1
    43   22   50 1
    44   23   24 1
    45   23   25 1
    46   23   30 1
    47   25   26 1
    48   25   51 1
    49   25   52 1
    50   26   27 1
    51   26   53 1
    52   26   54 1
    53   27   28 2
    54   27   29 1
    55   30   31 2
    56   30   32 1
@<TRIPOS>MOLECULE
CHEMBL314116__1
   55    57     0     0     0
SMALL
USER_CHARGES

@<TRIPOS>ATOM
      1 C1         -0.0167    1.3794    0.0096 C.ar      1 <0>        -0.1275
      2 C2          1.1667    2.0884    0.0021 C.ar      1 <0>        -0.0645
      3 C3          2.3848    1.4070   -0.0132 C.ar      1 <0>        -0.0994
      4 C4          2.3966    0.0113   -0.0208 C.ar      1 <0>        -0.0830
      5 C5          1.2061   -0.6856   -0.0132 C.ar      1 <0>        -0.1219
      6 C6          0.0021   -0.0041    0.0020 C.ar      1 <0>        -0.0902
      7 C7         -1.2946   -0.7719    0.0103 C.3       1 <0>        -0.0766
      8 C8         -1.7472   -1.0241   -1.4293 C.3       1 <0>        -0.1111
      9 C9         -3.0637   -1.8037   -1.4209 C.3       1 <0>        -0.1062
     10 C10        -3.4620   -2.1519   -2.8560 C.3       1 <0>        -0.0731
     11 C11        -4.8571   -2.7114   -2.8893 C.ar      1 <0>        -0.2099
     12 C12        -5.2685   -3.4672   -3.9715 C.ar      1 <0>         0.1936
     13 N1         -6.5011   -3.9525   -3.9896 N.ar      1 <0>        -0.5704
     14 C13        -7.3393   -3.7225   -2.9895 C.ar      1 <0>         0.6548
     15 N2         -6.9824   -3.0039   -1.9355 N.ar      1 <0>        -0.5750
     16 C14        -5.7588   -2.4898   -1.8529 C.ar      1 <0>         0.5206
     17 N3         -5.3955   -1.7470   -0.7407 N.pl3     1 <0>        -0.6543
     18 C15        -4.1675   -0.9415   -0.7948 C.3       1 <0>         0.0995
     19 N4         -8.6193   -4.2457   -3.0478 N.pl3     1 <0>        -0.7988
     20 C16         3.6569    2.1603   -0.0218 C.2       1 <0>         0.5456
     21 O1          3.6435    3.3757   -0.0155 O.2       1 <0>        -0.5518
     22 N5          4.8314    1.4994   -0.0366 N.am      1 <0>        -0.6728
     23 C17         6.0919    2.2459   -0.0451 C.3       1 <0>         0.0716
     24 H1          5.9814    3.1523    0.5501 H         1 <0>         0.0792
     25 C18         7.2027    1.3778    0.5494 C.3       1 <0>        -0.0811
     26 C19         6.9032    1.1060    2.0250 C.3       1 <0>        -0.1776
     27 C20         7.9973    0.2510    2.6105 C.2       1 <0>         0.4902
     28 O2          8.9302   -0.1078    1.9123 O.co2     1 <0>        -0.6958
     29 O3          7.9496   -0.0820    3.7824 O.co2     1 <0>        -0.7193
     30 C21         6.4472    2.6155   -1.4622 C.2       1 <0>         0.4961
     31 O4          5.7154    2.2860   -2.3799 O.co2     1 <0>        -0.6995
     32 O5          7.4666    3.2441   -1.6909 O.co2     1 <0>        -0.6958
     33 H2         -0.9598    1.9054    0.0260 H         1 <0>         0.1201
     34 H3          1.1508    3.1682    0.0077 H         1 <0>         0.1350
     35 H4          3.3358   -0.5219   -0.0330 H         1 <0>         0.1306
     36 H5          1.2138   -1.7656   -0.0191 H         1 <0>         0.1226
     37 H6         -1.1489   -1.7256    0.5176 H         1 <0>         0.0741
     38 H7         -2.0557   -0.1941    0.5345 H         1 <0>         0.0700
     39 H8         -1.8929   -0.0704   -1.9367 H         1 <0>         0.0773
     40 H9         -0.9861   -1.6019   -1.9536 H         1 <0>         0.0834
     41 H10        -2.9423   -2.7189   -0.8414 H         1 <0>         0.0918
     42 H11        -3.4192   -1.2528   -3.4706 H         1 <0>         0.1020
     43 H12        -2.7671   -2.8914   -3.2540 H         1 <0>         0.1040
     44 H13        -4.5933   -3.6594   -4.7922 H         1 <0>         0.2150
     45 H14        -5.9427   -1.7586    0.0602 H         1 <0>         0.4277
     46 H15        -3.8765   -0.6450    0.2130 H         1 <0>         0.1179
     47 H16        -4.3346   -0.0552   -1.4067 H         1 <0>         0.0945
     48 H17        -8.8931   -4.7734   -3.8142 H         1 <0>         0.4279
     49 H18        -9.2425   -4.0846   -2.3221 H         1 <0>         0.4424
     50 H19         4.8421    0.5294   -0.0416 H         1 <0>         0.3888
     51 H20         7.2537    0.4325    0.0090 H         1 <0>         0.0552
     52 H21         8.1565    1.8981    0.4621 H         1 <0>         0.0809
     53 H22         6.8522    2.0513    2.5654 H         1 <0>         0.0527
     54 H23         5.9494    0.5857    2.1123 H         1 <0>         0.0483
     55 H24        -6.7945   -4.4836   -4.7464 H         1 <0>         0.4418
@<TRIPOS>BOND
     1    1    6 ar
     2    1    2 ar
     3    1   33 1
     4    2    3 ar
     5    2   34 1
     6    3    4 ar
     7    3   20 1
     8    4    5 ar
     9    4   35 1
    10    5    6 ar
    11    5   36 1
    12    6    7 1
    13    7    8 1
    14    7   37 1
    15    7   38 1
    16    8    9 1
    17    8   39 1
    18    8   40 1
    19    9   18 1
    20    9   10 1
    21    9   41 1
    22   10   11 1
    23   10   42 1
    24   10   43 1
    25   11   16 ar
    26   11   12 ar
    27   12   13 ar
    28   12   44 1
    29   13   14 ar
    30   13   55 1
    31   14   15 ar
    32   14   19 1
    33   15   16 ar
    34   16   17 1
    35   17   18 1
    36   17   45 1
    37   18   46 1
    38   18   47 1
    39   19   48 1
    40   19   49 1
    41   20   21 2
    42   20   22 am
    43   22   23 1
    44   22   50 1
    45   23   24 1
    46   23   25 1
    47   23   30 1
    48   25   26 1
    49   25   51 1
    50   25   52 1
    51   26   27 1
    52   26   53 1
    53   26   54 1
    54   27   28 2
    55   27   29 1
    56   30   31 2
    57   30   32 1
@<TRIPOS>MOLECULE
CHEMBL314116__2
   54    56     0     0     0
SMALL
USER_CHARGES

@<TRIPOS>ATOM
      1 C1         -0.0167    1.3794    0.0096 C.ar      1 <0>        -0.1281
      2 C2          1.1667    2.0884    0.0021 C.ar      1 <0>        -0.0643
      3 C3          2.3848    1.4070   -0.0132 C.ar      1 <0>        -0.1078
      4 C4          2.3966    0.0113   -0.0208 C.ar      1 <0>        -0.0834
      5 C5          1.2061   -0.6856   -0.0132 C.ar      1 <0>        -0.1239
      6 C6          0.0021   -0.0041    0.0020 C.ar      1 <0>        -0.0794
      7 C7         -1.2946   -0.7719    0.0103 C.3       1 <0>        -0.0782
      8 C8         -1.7472   -1.0241   -1.4293 C.3       1 <0>        -0.1085
      9 C9         -3.0637   -1.8037   -1.4209 C.3       1 <0>        -0.1031
     10 C10        -3.5744   -1.9621   -2.8539 C.3       1 <0>        -0.0525
     11 C11        -4.7361   -2.9157   -2.8915 C.ar      1 <0>        -0.2967
     12 C12        -5.6071   -2.8954   -3.9652 C.ar      1 <0>         0.2121
     13 N1         -6.6254   -3.7426   -3.9873 N.ar      1 <0>        -0.6074
     14 C13        -6.8174   -4.6040   -2.9991 C.ar      1 <0>         0.5927
     15 N2         -6.0061   -4.6532   -1.9531 N.ar      1 <0>        -0.6267
     16 C14        -4.9654   -3.8298   -1.8677 C.ar      1 <0>         0.4785
     17 N3         -4.1286   -3.8865   -0.7643 N.pl3     1 <0>        -0.7136
     18 C15        -2.8325   -3.1960   -0.8196 C.3       1 <0>         0.1241
     19 N4         -7.8924   -5.4735   -3.0609 N.pl3     1 <0>        -0.8261
     20 C16         3.6569    2.1603   -0.0218 C.2       1 <0>         0.5494
     21 O1          3.6435    3.3757   -0.0155 O.2       1 <0>        -0.5546
     22 N5          4.8314    1.4994   -0.0366 N.am      1 <0>        -0.6755
     23 C17         6.0919    2.2459   -0.0451 C.3       1 <0>         0.0723
     24 H1          5.9814    3.1523    0.5501 H         1 <0>         0.0781
     25 C18         7.2027    1.3778    0.5494 C.3       1 <0>        -0.0804
     26 C19         6.9032    1.1060    2.0250 C.3       1 <0>        -0.1779
     27 C20         7.9973    0.2510    2.6105 C.2       1 <0>         0.4909
     28 O2          8.9302   -0.1078    1.9123 O.co2     1 <0>        -0.6969
     29 O3          7.9496   -0.0820    3.7824 O.co2     1 <0>        -0.7202
     30 C21         6.4472    2.6155   -1.4622 C.2       1 <0>         0.4957
     31 O4          5.7154    2.2860   -2.3799 O.co2     1 <0>        -0.6970
     32 O5          7.4666    3.2441   -1.6909 O.co2     1 <0>        -0.6996
     33 H2         -0.9598    1.9054    0.0260 H         1 <0>         0.1212
     34 H3          1.1508    3.1682    0.0077 H         1 <0>         0.1330
     35 H4          3.3358   -0.5219   -0.0330 H         1 <0>         0.1284
     36 H5          1.2138   -1.7656   -0.0191 H         1 <0>         0.1228
     37 H6         -1.1489   -1.7256    0.5176 H         1 <0>         0.0715
     38 H7         -2.0557   -0.1941    0.5345 H         1 <0>         0.0710
     39 H8         -1.8929   -0.0704   -1.9367 H         1 <0>         0.0738
     40 H9         -0.9861   -1.6019   -1.9536 H         1 <0>         0.0717
     41 H10        -3.8021   -1.2668   -0.8254 H         1 <0>         0.0795
     42 H11        -3.8925   -0.9909   -3.2330 H         1 <0>         0.0776
     43 H12        -2.7715   -2.3467   -3.4827 H         1 <0>         0.0741
     44 H13        -5.4592   -2.1972   -4.7758 H         1 <0>         0.1647
     45 H14        -4.3942   -4.3735    0.0313 H         1 <0>         0.4076
     46 H15        -2.1417   -3.7586   -1.4476 H         1 <0>         0.0690
     47 H16        -2.4229   -3.1000    0.1859 H         1 <0>         0.0932
     48 H17        -8.4941   -5.4474   -3.8212 H         1 <0>         0.4125
     49 H18        -8.0441   -6.1090   -2.3439 H         1 <0>         0.4108
     50 H19         4.8421    0.5294   -0.0416 H         1 <0>         0.3891
     51 H20         7.2537    0.4325    0.0090 H         1 <0>         0.0550
     52 H21         8.1565    1.8981    0.4621 H         1 <0>         0.0794
     53 H22         6.8522    2.0513    2.5654 H         1 <0>         0.0523
     54 H23         5.9494    0.5857    2.1123 H         1 <0>         0.0499
@<TRIPOS>BOND
     1    1    6 ar
     2    1    2 ar
     3    1   33 1
     4    2    3 ar
     5    2   34 1
     6    3    4 ar
     7    3   20 1
     8    4    5 ar
     9    4   35 1
    10    5    6 ar
    11    5   36 1
    12    6    7 1
    13    7    8 1
    14    7   37 1
    15    7   38 1
    16    8    9 1
    17    8   39 1
    18    8   40 1
    19    9   18 1
    20    9   10 1
    21    9   41 1
    22   10   11 1
    23   10   42 1
    24   10   43 1
    25   11   16 ar
    26   11   12 ar
    27   12   13 ar
    28   12   44 1
    29   13   14 ar
    30   14   15 ar
    31   14   19 1
    32   15   16 ar
    33   16   17 1
    34   17   18 1
    35   17   45 1
    36   18   46 1
    37   18   47 1
    38   19   48 1
    39   19   49 1
    40   20   21 2
    41   20   22 am
    42   22   23 1
    43   22   50 1
    44   23   24 1
    45   23   25 1
    46   23   30 1
    47   25   26 1
    48   25   51 1
    49   25   52 1
    50   26   27 1
    51   26   53 1
    52   26   54 1
    53   27   28 2
    54   27   29 1
    55   30   31 2
    56   30   32 1
@<TRIPOS>MOLECULE
CHEMBL314116__3
   55    57     0     0     0
SMALL
USER_CHARGES

@<TRIPOS>ATOM
      1 C1         -0.0167    1.3794    0.0096 C.ar      1 <0>        -0.1266
      2 C2          1.1667    2.0884    0.0021 C.ar      1 <0>        -0.0641
      3 C3          2.3848    1.4070   -0.0132 C.ar      1 <0>        -0.0994
      4 C4          2.3966    0.0113   -0.0208 C.ar      1 <0>        -0.0833
      5 C5          1.2061   -0.6856   -0.0132 C.ar      1 <0>        -0.1229
      6 C6          0.0021   -0.0041    0.0020 C.ar      1 <0>        -0.0902
      7 C7         -1.2946   -0.7719    0.0103 C.3       1 <0>        -0.0766
      8 C8         -1.7472   -1.0241   -1.4293 C.3       1 <0>        -0.1112
      9 C9         -3.0637   -1.8037   -1.4209 C.3       1 <0>        -0.1056
     10 C10        -3.5744   -1.9621   -2.8539 C.3       1 <0>        -0.0730
     11 C11        -4.7361   -2.9157   -2.8915 C.ar      1 <0>        -0.2097
     12 C12        -5.6071   -2.8954   -3.9652 C.ar      1 <0>         0.1929
     13 N1         -6.6254   -3.7426   -3.9873 N.ar      1 <0>        -0.5706
     14 C13        -6.8177   -4.6037   -2.9989 C.ar      1 <0>         0.6548
     15 N2         -6.0058   -4.6535   -1.9533 N.ar      1 <0>        -0.5747
     16 C14        -4.9654   -3.8298   -1.8677 C.ar      1 <0>         0.5204
     17 N3         -4.1286   -3.8865   -0.7643 N.pl3     1 <0>        -0.6536
     18 C15        -2.8325   -3.1960   -0.8196 C.3       1 <0>         0.0987
     19 N4         -7.8929   -5.4729   -3.0605 N.pl3     1 <0>        -0.7987
     20 C16         3.6569    2.1603   -0.0218 C.2       1 <0>         0.5455
     21 O1          3.6435    3.3757   -0.0155 O.2       1 <0>        -0.5515
     22 N5          4.8314    1.4994   -0.0366 N.am      1 <0>        -0.6728
     23 C17         6.0919    2.2459   -0.0451 C.3       1 <0>         0.0716
     24 H1          5.9814    3.1523    0.5501 H         1 <0>         0.0793
     25 C18         7.2027    1.3778    0.5494 C.3       1 <0>        -0.0810
     26 C19         6.9032    1.1060    2.0250 C.3       1 <0>        -0.1776
     27 C20         7.9973    0.2510    2.6105 C.2       1 <0>         0.4902
     28 O2          8.9302   -0.1078    1.9123 O.co2     1 <0>        -0.6958
     29 O3          7.9496   -0.0820    3.7824 O.co2     1 <0>        -0.7193
     30 C21         6.4472    2.6155   -1.4622 C.2       1 <0>         0.4961
     31 O4          5.7154    2.2860   -2.3799 O.co2     1 <0>        -0.6995
     32 O5          7.4666    3.2441   -1.6909 O.co2     1 <0>        -0.6958
     33 H2         -0.9598    1.9054    0.0260 H         1 <0>         0.1207
     34 H3          1.1508    3.1682    0.0077 H         1 <0>         0.1351
     35 H4          3.3358   -0.5219   -0.0330 H         1 <0>         0.1305
     36 H5          1.2138   -1.7656   -0.0191 H         1 <0>         0.1220
     37 H6         -1.1489   -1.7256    0.5176 H         1 <0>         0.0711
     38 H7         -2.0557   -0.1941    0.5345 H         1 <0>         0.0730
     39 H8         -1.8929   -0.0704   -1.9367 H         1 <0>         0.0824
     40 H9         -0.9861   -1.6019   -1.9536 H         1 <0>         0.0783
     41 H10        -3.8021   -1.2668   -0.8254 H         1 <0>         0.0910
     42 H11        -3.8925   -0.9909   -3.2330 H         1 <0>         0.1032
     43 H12        -2.7715   -2.3467   -3.4827 H         1 <0>         0.1025
     44 H13        -5.4588   -2.1977   -4.7761 H         1 <0>         0.2147
     45 H14        -4.3942   -4.3735    0.0313 H         1 <0>         0.4279
     46 H15        -2.1417   -3.7586   -1.4476 H         1 <0>         0.0956
     47 H16        -2.4229   -3.1000    0.1859 H         1 <0>         0.1185
     48 H17        -8.4946   -5.4468   -3.8208 H         1 <0>         0.4278
     49 H18        -8.0447   -6.1081   -2.3433 H         1 <0>         0.4425
     50 H19         4.8421    0.5294   -0.0416 H         1 <0>         0.3887
     51 H20         7.2537    0.4325    0.0090 H         1 <0>         0.0551
     52 H21         8.1565    1.8981    0.4621 H         1 <0>         0.0809
     53 H22         6.8522    2.0513    2.5654 H         1 <0>         0.0528
     54 H23         5.9494    0.5857    2.1123 H         1 <0>         0.0483
     55 H24        -7.2395   -3.7321   -4.7381 H         1 <0>         0.4416
@<TRIPOS>BOND
     1    1    6 ar
     2    1    2 ar
     3    1   33 1
     4    2    3 ar
     5    2   34 1
     6    3    4 ar
     7    3   20 1
     8    4    5 ar
     9    4   35 1
    10    5    6 ar
    11    5   36 1
    12    6    7 1
    13    7    8 1
    14    7   37 1
    15    7   38 1
    16    8    9 1
    17    8   39 1
    18    8   40 1
    19    9   18 1
    20    9   10 1
    21    9   41 1
    22   10   11 1
    23   10   42 1
    24   10   43 1
    25   11   16 ar
    26   11   12 ar
    27   12   13 ar
    28   12   44 1
    29   13   14 ar
    30   13   55 1
    31   14   15 ar
    32   14   19 1
    33   15   16 ar
    34   16   17 1
    35   17   18 1
    36   17   45 1
    37   18   46 1
    38   18   47 1
    39   19   48 1
    40   19   49 1
    41   20   21 2
    42   20   22 am
    43   22   23 1
    44   22   50 1
    45   23   24 1
    46   23   25 1
    47   23   30 1
    48   25   26 1
    49   25   51 1
    50   25   52 1
    51   26   27 1
    52   26   53 1
    53   26   54 1
    54   27   28 2
    55   27   29 1
    56   30   31 2
    57   30   32 1
@<TRIPOS>MOLECULE
CHEMBL452322
   58    59     0     0     0
SMALL
USER_CHARGES

@<TRIPOS>ATOM
      1 C1          0.5665   -0.4247    1.6739 C.3       1 <0>        -0.1216
      2 S1          0.0377   -0.1509   -0.0395 S.3       1 <0>        -0.2575
      3 C2         -1.7191   -0.6030   -0.0343 C.3       1 <0>        -0.0034
      4 H1         -2.2345   -0.0490    0.7502 H         1 <0>         0.0920
      5 C3         -2.3378   -0.2609   -1.3911 C.3       1 <0>        -0.0962
      6 C4         -2.3240    1.2561   -1.5899 C.3       1 <0>        -0.1140
      7 C5         -2.8370    1.5914   -2.9918 C.3       1 <0>        -0.0265
      8 C6         -2.8234    3.0856   -3.1876 C.2       1 <0>        -0.3958
      9 C7         -1.7469    3.7083   -3.8029 C.2       1 <0>         0.4883
     10 N1         -1.7540    5.0363   -3.9679 N.2       1 <0>        -0.6249
     11 C8         -2.7674    5.7684   -3.5561 C.2       1 <0>         0.6624
     12 N2         -3.8463    5.2056   -2.9467 N.am      1 <0>        -0.6618
     13 H2         -4.5816    5.7650   -2.6511 H         1 <0>         0.4084
     14 C9         -3.8981    3.8704   -2.7580 C.2       1 <0>         0.5551
     15 O1         -4.8647    3.3569   -2.2168 O.2       1 <0>        -0.5452
     16 N3         -2.7352    7.1244   -3.7442 N.pl3     1 <0>        -0.8232
     17 N4         -0.6728    2.9612   -4.2426 N.pl3     1 <0>        -0.8268
     18 C10        -1.8564   -2.0817    0.2219 C.ar      1 <0>        -0.0853
     19 C11        -1.2739   -2.9881   -0.6461 C.ar      1 <0>        -0.1050
     20 C12        -1.3959   -4.3431   -0.4173 C.ar      1 <0>        -0.0660
     21 C13        -2.1088   -4.7989    0.6927 C.ar      1 <0>        -0.1010
     22 C14        -2.6940   -3.8792    1.5644 C.ar      1 <0>        -0.0852
     23 C15        -2.5597   -2.5268    1.3272 C.ar      1 <0>        -0.1186
     24 C16        -2.2440   -6.2496    0.9437 C.2       1 <0>         0.5496
     25 O2         -1.7336   -7.0483    0.1827 O.2       1 <0>        -0.5534
     26 N5         -2.9331   -6.6866    2.0164 N.am      1 <0>        -0.6754
     27 C17        -3.0670   -8.1241    2.2652 C.3       1 <0>         0.0724
     28 H3         -2.1536   -8.6328    1.9571 H         1 <0>         0.0782
     29 C18        -3.3055   -8.3634    3.7574 C.3       1 <0>        -0.0805
     30 C19        -2.0692   -7.9293    4.5475 C.3       1 <0>        -0.1778
     31 C20        -2.3041   -8.1650    6.0173 C.2       1 <0>         0.4910
     32 O3         -3.3622   -8.6364    6.3977 O.co2     1 <0>        -0.6968
     33 O4         -1.4360   -7.8842    6.8261 O.co2     1 <0>        -0.7204
     34 C21        -4.2328   -8.6637    1.4773 C.2       1 <0>         0.4956
     35 O5         -4.8908   -7.9168    0.7733 O.co2     1 <0>        -0.6964
     36 O6         -4.5180   -9.8473    1.5440 O.co2     1 <0>        -0.6998
     37 H4          1.6411   -0.2605    1.7532 H         1 <0>         0.0968
     38 H5          0.0433    0.2700    2.3310 H         1 <0>         0.0731
     39 H6          0.3327   -1.4482    1.9672 H         1 <0>         0.0817
     40 H7         -1.7606   -0.7365   -2.1840 H         1 <0>         0.0726
     41 H8         -3.3657   -0.6222   -1.4231 H         1 <0>         0.0812
     42 H9         -2.9671    1.7259   -0.8457 H         1 <0>         0.0626
     43 H10        -1.3057    1.6281   -1.4770 H         1 <0>         0.0694
     44 H11        -2.1940    1.1216   -3.7360 H         1 <0>         0.0556
     45 H12        -3.8553    1.2194   -3.1047 H         1 <0>         0.0710
     46 H13        -1.9709    7.5359   -4.1772 H         1 <0>         0.4270
     47 H14        -3.4766    7.6734   -3.4446 H         1 <0>         0.4146
     48 H15        -0.6695    1.9987   -4.1217 H         1 <0>         0.4171
     49 H16         0.0788    3.3985   -4.6724 H         1 <0>         0.4037
     50 H17        -0.7228   -2.6341   -1.5048 H         1 <0>         0.1272
     51 H18        -0.9410   -5.0496   -1.0958 H         1 <0>         0.1351
     52 H19        -3.2470   -4.2255    2.4250 H         1 <0>         0.1296
     53 H20        -3.0083   -1.8141    2.0033 H         1 <0>         0.1221
     54 H21        -3.3404   -6.0492    2.6238 H         1 <0>         0.3891
     55 H22        -4.1682   -7.7833    4.0851 H         1 <0>         0.0550
     56 H23        -3.4934   -9.4231    3.9300 H         1 <0>         0.0795
     57 H24        -1.2065   -8.5093    4.2198 H         1 <0>         0.0523
     58 H25        -1.8813   -6.8696    4.3749 H         1 <0>         0.0496
@<TRIPOS>BOND
     1    1    2 1
     2    1   37 1
     3    1   38 1
     4    1   39 1
     5    2    3 1
     6    3    4 1
     7    3    5 1
     8    3   18 1
     9    5    6 1
    10    5   40 1
    11    5   41 1
    12    6    7 1
    13    6   42 1
    14    6   43 1
    15    7    8 1
    16    7   44 1
    17    7   45 1
    18    8   14 1
    19    8    9 2
    20    9   10 1
    21    9   17 1
    22   10   11 2
    23   11   12 1
    24   11   16 1
    25   12   13 1
    26   12   14 am
    27   14   15 2
    28   16   46 1
    29   16   47 1
    30   17   48 1
    31   17   49 1
    32   18   23 ar
    33   18   19 ar
    34   19   20 ar
    35   19   50 1
    36   20   21 ar
    37   20   51 1
    38   21   22 ar
    39   21   24 1
    40   22   23 ar
    41   22   52 1
    42   23   53 1
    43   24   25 2
    44   24   26 am
    45   26   27 1
    46   26   54 1
    47   27   28 1
    48   27   29 1
    49   27   34 1
    50   29   30 1
    51   29   55 1
    52   29   56 1
    53   30   31 1
    54   30   57 1
    55   30   58 1
    56   31   32 2
    57   31   33 1
    58   34   35 2
    59   34   36 1
@<TRIPOS>MOLECULE
CHEMBL85871
   49    50     0     0     0
SMALL
USER_CHARGES

@<TRIPOS>ATOM
      1 C1         -0.3741    1.6520    0.0125 C.2       1 <0>        -0.1750
      2 C2          0.7981    2.3684    0.0499 C.2       1 <0>        -0.0960
      3 C3          1.9582    1.6191    0.1736 C.2       1 <0>        -0.2099
      4 S1          1.3163   -0.0431    0.2285 S.3       1 <0>         0.2128
      5 C4         -0.3230    0.2996    0.0963 C.2       1 <0>        -0.2194
      6 C5         -1.4736   -0.6734    0.0763 C.3       1 <0>        -0.0231
      7 C6         -1.7658   -1.0880   -1.3672 C.3       1 <0>        -0.0995
      8 C7         -2.9340   -2.0759   -1.3875 C.3       1 <0>        -0.1036
      9 S2         -3.2805   -2.5675   -3.0989 S.3       1 <0>        -0.0905
     10 C8         -4.5445   -3.7853   -2.9449 C.2       1 <0>        -0.4291
     11 C9         -5.8205   -3.5499   -3.4429 C.2       1 <0>         0.5301
     12 N1         -6.7660   -4.4890   -3.3152 N.2       1 <0>        -0.6256
     13 C10        -6.5116   -5.6365   -2.7250 C.2       1 <0>         0.6773
     14 N2         -5.2794   -5.9174   -2.2197 N.am      1 <0>        -0.6602
     15 C11        -4.2820   -5.0143   -2.3226 C.2       1 <0>         0.5633
     16 O1         -3.1716   -5.2609   -1.8771 O.2       1 <0>        -0.5244
     17 N3         -7.5105   -6.5708   -2.6158 N.pl3     1 <0>        -0.8183
     18 N4         -6.1126   -2.3495   -4.0678 N.pl3     1 <0>        -0.8152
     19 C12         3.3497    2.0749    0.2415 C.2       1 <0>         0.5878
     20 O2          3.6039    3.2639    0.1882 O.2       1 <0>        -0.5414
     21 N5          4.3477    1.1773    0.3629 N.am      1 <0>        -0.6727
     22 C13         5.7384    1.6328    0.4308 C.3       1 <0>         0.0736
     23 H1          5.7849    2.5792    0.9696 H         1 <0>         0.0798
     24 C14         6.5824    0.5873    1.1626 C.3       1 <0>        -0.0829
     25 C15         6.1187    0.4847    2.6170 C.3       1 <0>        -0.1781
     26 C16         6.9500   -0.5451    3.3378 C.2       1 <0>         0.4916
     27 O3          7.8317   -1.1416    2.7434 O.co2     1 <0>        -0.6972
     28 O4          6.7409   -0.7817    4.5155 O.co2     1 <0>        -0.7196
     29 C17         6.2735    1.8228   -0.9652 C.2       1 <0>         0.4984
     30 O5          7.1313    2.6620   -1.1803 O.co2     1 <0>        -0.7001
     31 O6          5.8486    1.1371   -1.8794 O.co2     1 <0>        -0.6966
     32 H2         -1.3231    2.1594   -0.0780 H         1 <0>         0.1277
     33 H3          0.8147    3.4464   -0.0133 H         1 <0>         0.1447
     34 H4         -1.2140   -1.5551    0.6622 H         1 <0>         0.0795
     35 H5         -2.3572   -0.2000    0.5043 H         1 <0>         0.0809
     36 H6         -2.0254   -0.2063   -1.9530 H         1 <0>         0.0738
     37 H7         -0.8822   -1.5614   -1.7952 H         1 <0>         0.0797
     38 H8         -2.6744   -2.9576   -0.8016 H         1 <0>         0.0868
     39 H9         -3.8176   -1.6025   -0.9594 H         1 <0>         0.0730
     40 H10        -8.3927   -6.3815   -2.9719 H         1 <0>         0.4287
     41 H11        -7.3345   -7.4206   -2.1825 H         1 <0>         0.4169
     42 H12        -5.4070   -1.7049   -4.2338 H         1 <0>         0.4238
     43 H13        -7.0228   -2.1531   -4.3395 H         1 <0>         0.4049
     44 H14         4.1452    0.2296    0.4054 H         1 <0>         0.3917
     45 H15         6.4654   -0.3804    0.6748 H         1 <0>         0.0615
     46 H16         7.6311    0.8833    1.1356 H         1 <0>         0.0741
     47 H17         6.2358    1.4524    3.1048 H         1 <0>         0.0531
     48 H18         5.0700    0.1887    2.6440 H         1 <0>         0.0513
     49 H19        -5.1166   -6.7708   -1.7882 H         1 <0>         0.4116
@<TRIPOS>BOND
     1    1    5 2
     2    1    2 1
     3    1   32 1
     4    2    3 2
     5    2   33 1
     6    3    4 1
     7    3   19 1
     8    4    5 1
     9    5    6 1
    10    6    7 1
    11    6   34 1
    12    6   35 1
    13    7    8 1
    14    7   36 1
    15    7   37 1
    16    8    9 1
    17    8   38 1
    18    8   39 1
    19    9   10 1
    20   10   15 1
    21   10   11 2
    22   11   12 1
    23   11   18 1
    24   12   13 2
    25   13   14 1
    26   13   17 1
    27   14   15 am
    28   14   49 1
    29   15   16 2
    30   17   40 1
    31   17   41 1
    32   18   42 1
    33   18   43 1
    34   19   20 2
    35   19   21 am
    36   21   22 1
    37   21   44 1
    38   22   23 1
    39   22   24 1
    40   22   29 1
    41   24   25 1
    42   24   45 1
    43   24   46 1
    44   25   26 1
    45   25   47 1
    46   25   48 1
    47   26   27 2
    48   26   28 1
    49   29   30 2
    50   29   31 1
@<TRIPOS>MOLECULE
CHEMBL84163
   50    52     0     0     0
SMALL
USER_CHARGES

@<TRIPOS>ATOM
      1 C1         -0.0163    1.3517    0.0095 C.2       1 <0>        -0.1720
      2 C2          1.1755    2.0360    0.0018 C.2       1 <0>        -0.0950
      3 C3          2.3196    1.2528   -0.0134 C.2       1 <0>        -0.2080
      4 S1          1.6361   -0.3937   -0.0157 S.3       1 <0>         0.2055
      5 C4          0.0021   -0.0041    0.0020 C.2       1 <0>        -0.2194
      6 C5         -1.1743   -0.9460    0.0089 C.3       1 <0>        -0.0311
      7 C6         -1.5870   -1.2570   -1.4311 C.3       1 <0>        -0.0941
      8 C7         -2.7813   -2.2133   -1.4241 C.3       1 <0>        -0.1053
      9 C8         -3.1550   -2.5921   -2.8659 C.3       1 <0>         0.1263
     10 N1         -4.2305   -3.5783   -2.8299 N.pl3     1 <0>        -0.7077
     11 C9         -5.4197   -3.3755   -2.1616 C.2       1 <0>         0.4826
     12 C10        -5.5656   -2.4349   -1.1561 C.2       1 <0>        -0.3938
     13 C11        -6.8036   -2.3051   -0.5110 C.2       1 <0>         0.5751
     14 N2         -7.8238   -3.1005   -0.8954 N.am      1 <0>        -0.6564
     15 C12        -7.6384   -4.0018   -1.8984 C.2       1 <0>         0.6606
     16 N3         -6.4808   -4.1292   -2.5042 N.2       1 <0>        -0.6148
     17 N4         -8.6873   -4.7971   -2.2856 N.pl3     1 <0>        -0.8224
     18 O1         -6.9560   -1.4869    0.3833 O.2       1 <0>        -0.5296
     19 S2         -4.2251   -1.3929   -0.6820 S.3       1 <0>        -0.0469
     20 C13         3.7248    1.6700   -0.0245 C.2       1 <0>         0.5874
     21 O2          4.0082    2.8535   -0.0209 O.2       1 <0>        -0.5403
     22 N5          4.7028    0.7428   -0.0389 N.am      1 <0>        -0.6728
     23 C14         6.1072    1.1597   -0.0500 C.3       1 <0>         0.0736
     24 H1          6.2216    2.0669    0.5432 H         1 <0>         0.0800
     25 C15         6.9739    0.0483    0.5454 C.3       1 <0>        -0.0826
     26 C16         6.6191   -0.1395    2.0218 C.3       1 <0>        -0.1783
     27 C17         7.4728   -1.2342    2.6083 C.2       1 <0>         0.4916
     28 O3          8.2893   -1.8108    1.9101 O.co2     1 <0>        -0.6977
     29 O4          7.3470   -1.5433    3.7809 O.co2     1 <0>        -0.7191
     30 C18         6.5400    1.4290   -1.4682 C.2       1 <0>         0.4987
     31 O5          7.4028    2.2600   -1.6949 O.co2     1 <0>        -0.6995
     32 O6          6.0274    0.8157   -2.3889 O.co2     1 <0>        -0.6978
     33 H2         -0.9545    1.8864    0.0258 H         1 <0>         0.1298
     34 H3          1.2182    3.1151    0.0068 H         1 <0>         0.1452
     35 H4         -0.8964   -1.8705    0.5150 H         1 <0>         0.0807
     36 H5         -2.0089   -0.4811    0.5338 H         1 <0>         0.0894
     37 H6         -1.8648   -0.3325   -1.9372 H         1 <0>         0.0830
     38 H7         -0.7524   -1.7219   -1.9560 H         1 <0>         0.0880
     39 H8         -2.5334   -3.1106   -0.8571 H         1 <0>         0.1012
     40 H9         -3.4912   -1.7043   -3.4014 H         1 <0>         0.0835
     41 H10        -2.2863   -3.0172   -3.3687 H         1 <0>         0.1064
     42 H11        -4.1024   -4.4177   -3.2988 H         1 <0>         0.4092
     43 H12        -9.5478   -4.7131   -1.8458 H         1 <0>         0.4147
     44 H13        -8.5684   -5.4434   -2.9991 H         1 <0>         0.4278
     45 H14         4.4769   -0.2005   -0.0418 H         1 <0>         0.3913
     46 H15         6.7924   -0.8819    0.0070 H         1 <0>         0.0611
     47 H16         8.0256    0.3204    0.4562 H         1 <0>         0.0741
     48 H17         6.8007    0.7907    2.5602 H         1 <0>         0.0534
     49 H18         5.5674   -0.4116    2.1110 H         1 <0>         0.0513
     50 H19        -8.6867   -3.0304   -0.4579 H         1 <0>         0.4131
@<TRIPOS>BOND
     1    1    5 2
     2    1    2 1
     3    1   33 1
     4    2    3 2
     5    2   34 1
     6    3    4 1
     7    3   20 1
     8    4    5 1
     9    5    6 1
    10    6    7 1
    11    6   35 1
    12    6   36 1
    13    7    8 1
    14    7   37 1
    15    7   38 1
    16    8   19 1
    17    8    9 1
    18    8   39 1
    19    9   10 1
    20    9   40 1
    21    9   41 1
    22   10   11 1
    23   10   42 1
    24   11   16 1
    25   11   12 2
    26   12   13 1
    27   12   19 1
    28   13   14 am
    29   13   18 2
    30   14   15 1
    31   14   50 1
    32   15   16 2
    33   15   17 1
    34   17   43 1
    35   17   44 1
    36   20   21 2
    37   20   22 am
    38   22   23 1
    39   22   45 1
    40   23   24 1
    41   23   25 1
    42   23   30 1
    43   25   26 1
    44   25   46 1
    45   25   47 1
    46   26   27 1
    47   26   48 1
    48   26   49 1
    49   27   28 2
    50   27   29 1
    51   30   31 2
    52   30   32 1
@<TRIPOS>MOLECULE
CHEMBL84163__1
   50    52     0     0     0
SMALL
USER_CHARGES

@<TRIPOS>ATOM
      1 C1         -0.0163    1.3517    0.0095 C.2       1 <0>        -0.1700
      2 C2          1.1755    2.0360    0.0018 C.2       1 <0>        -0.0968
      3 C3          2.3196    1.2528   -0.0134 C.2       1 <0>        -0.2026
      4 S1          1.6361   -0.3937   -0.0157 S.3       1 <0>         0.2010
      5 C4          0.0021   -0.0041    0.0020 C.2       1 <0>        -0.2219
      6 C5         -1.1743   -0.9460    0.0089 C.3       1 <0>        -0.0310
      7 C6         -1.5870   -1.2570   -1.4311 C.3       1 <0>        -0.0942
      8 C7         -2.7813   -2.2133   -1.4241 C.3       1 <0>        -0.1130
      9 C8         -3.1568   -2.5908   -2.8663 C.3       1 <0>         0.1311
     10 N1         -4.2441   -3.5640   -2.8270 N.pl3     1 <0>        -0.7314
     11 C9         -5.4250   -3.3514   -2.1582 C.2       1 <0>         0.4381
     12 C10        -5.5674   -2.4304   -1.1646 C.2       1 <0>        -0.3442
     13 C11        -6.8154   -2.2986   -0.5161 C.2       1 <0>         0.5611
     14 N2         -7.8459   -3.0694   -0.8955 N.2       1 <0>        -0.6251
     15 C12        -7.7059   -3.9483   -1.8645 C.2       1 <0>         0.6607
     16 N3         -6.5216   -4.1095   -2.5088 N.pl3     1 <0>        -0.6490
     17 N4         -8.7795   -4.7186   -2.2317 N.pl3     1 <0>        -0.8237
     18 O1         -6.9557   -1.4860    0.3874 O.2       1 <0>        -0.5090
     19 S2         -4.2255   -1.3933   -0.6820 S.3       1 <0>        -0.0291
     20 C13         3.7248    1.6700   -0.0245 C.2       1 <0>         0.5939
     21 O2          4.0082    2.8535   -0.0209 O.2       1 <0>        -0.5411
     22 N5          4.7028    0.7428   -0.0389 N.am      1 <0>        -0.6731
     23 C14         6.1072    1.1597   -0.0500 C.3       1 <0>         0.0725
     24 H1          6.2216    2.0669    0.5432 H         1 <0>         0.0803
     25 C15         6.9739    0.0483    0.5454 C.3       1 <0>        -0.0805
     26 C16         6.6191   -0.1395    2.0218 C.3       1 <0>        -0.1790
     27 C17         7.4728   -1.2342    2.6083 C.2       1 <0>         0.4914
     28 O3          8.2893   -1.8108    1.9101 O.co2     1 <0>        -0.6974
     29 O4          7.3470   -1.5433    3.7809 O.co2     1 <0>        -0.7195
     30 C18         6.5400    1.4290   -1.4682 C.2       1 <0>         0.4962
     31 O5          5.7487    1.2859   -2.3847 O.co2     1 <0>        -0.6966
     32 O6          7.6815    1.7899   -1.6991 O.co2     1 <0>        -0.6981
     33 H2         -0.9545    1.8864    0.0258 H         1 <0>         0.1299
     34 H3          1.2182    3.1151    0.0068 H         1 <0>         0.1453
     35 H4         -0.8964   -1.8705    0.5150 H         1 <0>         0.0808
     36 H5         -2.0089   -0.4811    0.5338 H         1 <0>         0.0897
     37 H6         -1.8648   -0.3325   -1.9372 H         1 <0>         0.0836
     38 H7         -0.7524   -1.7219   -1.9560 H         1 <0>         0.0881
     39 H8         -2.5335   -3.1110   -0.8578 H         1 <0>         0.1031
     40 H9         -3.4822   -1.7004   -3.4044 H         1 <0>         0.0861
     41 H10        -2.2927   -3.0279   -3.3666 H         1 <0>         0.1090
     42 H11        -4.1269   -4.4040   -3.2977 H         1 <0>         0.4034
     43 H12        -9.6305   -4.6121   -1.7785 H         1 <0>         0.4312
     44 H13        -8.6879   -5.3698   -2.9447 H         1 <0>         0.4097
     45 H14         4.4769   -0.2005   -0.0418 H         1 <0>         0.3890
     46 H15         6.7924   -0.8819    0.0070 H         1 <0>         0.0557
     47 H16         8.0256    0.3204    0.4562 H         1 <0>         0.0807
     48 H17         6.8007    0.7907    2.5602 H         1 <0>         0.0530
     49 H18         5.5674   -0.4116    2.1110 H         1 <0>         0.0503
     50 H19        -6.4466   -4.7633   -3.2214 H         1 <0>         0.4114
@<TRIPOS>BOND
     1    1    5 2
     2    1    2 1
     3    1   33 1
     4    2    3 2
     5    2   34 1
     6    3    4 1
     7    3   20 1
     8    4    5 1
     9    5    6 1
    10    6    7 1
    11    6   35 1
    12    6   36 1
    13    7    8 1
    14    7   37 1
    15    7   38 1
    16    8   19 1
    17    8    9 1
    18    8   39 1
    19    9   10 1
    20    9   40 1
    21    9   41 1
    22   10   11 1
    23   10   42 1
    24   11   16 1
    25   11   12 2
    26   12   13 1
    27   12   19 1
    28   13   14 1
    29   13   18 2
    30   14   15 2
    31   15   16 1
    32   15   17 1
    33   16   50 1
    34   17   43 1
    35   17   44 1
    36   20   21 2
    37   20   22 am
    38   22   23 1
    39   22   45 1
    40   23   24 1
    41   23   25 1
    42   23   30 1
    43   25   26 1
    44   25   46 1
    45   25   47 1
    46   26   27 1
    47   26   48 1
    48   26   49 1
    49   27   28 2
    50   27   29 1
    51   30   31 2
    52   30   32 1
@<TRIPOS>MOLECULE
CHEMBL84163__2
   50    52     0     0     0
SMALL
USER_CHARGES

@<TRIPOS>ATOM
      1 C1         -0.0163    1.3517    0.0095 C.2       1 <0>        -0.1746
      2 C2          1.1755    2.0360    0.0018 C.2       1 <0>        -0.0970
      3 C3          2.3196    1.2528   -0.0134 C.2       1 <0>        -0.2096
      4 S1          1.6361   -0.3937   -0.0157 S.3       1 <0>         0.2163
      5 C4          0.0021   -0.0041    0.0020 C.2       1 <0>        -0.2210
      6 C5         -1.1743   -0.9460    0.0089 C.3       1 <0>        -0.0310
      7 C6         -1.5870   -1.2570   -1.4311 C.3       1 <0>        -0.0943
      8 C7         -2.7813   -2.2133   -1.4241 C.3       1 <0>        -0.1066
      9 C8         -3.2517   -2.4714   -2.8643 C.3       1 <0>         0.1266
     10 N1         -4.4487   -3.3058   -2.8262 N.pl3     1 <0>        -0.7092
     11 C9         -4.5023   -4.5213   -2.1771 C.2       1 <0>         0.4798
     12 C10        -3.6033   -4.8858   -1.1892 C.2       1 <0>        -0.3918
     13 C11        -3.7390   -6.1328   -0.5626 C.2       1 <0>         0.5739
     14 N2         -4.7434   -6.9479   -0.9473 N.am      1 <0>        -0.6560
     15 C12        -5.5954   -6.5535   -1.9328 C.2       1 <0>         0.6602
     16 N3         -5.4744   -5.3862   -2.5212 N.2       1 <0>        -0.6157
     17 N4         -6.6055   -7.3970   -2.3213 N.pl3     1 <0>        -0.8228
     18 O1         -2.9623   -6.4750    0.3160 O.2       1 <0>        -0.5246
     19 S2         -2.2870   -3.8136   -0.7147 S.3       1 <0>        -0.0397
     20 C13         3.7248    1.6700   -0.0245 C.2       1 <0>         0.5874
     21 O2          4.0082    2.8535   -0.0209 O.2       1 <0>        -0.5414
     22 N5          4.7028    0.7428   -0.0389 N.am      1 <0>        -0.6724
     23 C14         6.1072    1.1597   -0.0500 C.3       1 <0>         0.0738
     24 H1          6.2216    2.0669    0.5432 H         1 <0>         0.0799
     25 C15         6.9739    0.0483    0.5454 C.3       1 <0>        -0.0829
     26 C16         6.6191   -0.1395    2.0218 C.3       1 <0>        -0.1782
     27 C17         7.4728   -1.2342    2.6083 C.2       1 <0>         0.4916
     28 O3          8.2893   -1.8108    1.9101 O.co2     1 <0>        -0.6976
     29 O4          7.3470   -1.5433    3.7809 O.co2     1 <0>        -0.7190
     30 C18         6.5400    1.4290   -1.4682 C.2       1 <0>         0.4987
     31 O5          7.4028    2.2600   -1.6949 O.co2     1 <0>        -0.6999
     32 O6          6.0274    0.8157   -2.3889 O.co2     1 <0>        -0.6972
     33 H2         -0.9545    1.8864    0.0258 H         1 <0>         0.1275
     34 H3          1.2182    3.1151    0.0068 H         1 <0>         0.1444
     35 H4         -0.8964   -1.8705    0.5150 H         1 <0>         0.0861
     36 H5         -2.0089   -0.4811    0.5338 H         1 <0>         0.0835
     37 H6         -1.8648   -0.3325   -1.9372 H         1 <0>         0.0857
     38 H7         -0.7524   -1.7219   -1.9560 H         1 <0>         0.0847
     39 H8         -3.5950   -1.7847   -0.8392 H         1 <0>         0.0988
     40 H9         -3.4830   -1.5226   -3.3486 H         1 <0>         0.1035
     41 H10        -2.4660   -2.9847   -3.4187 H         1 <0>         0.0849
     42 H11        -5.2459   -2.9896   -3.2796 H         1 <0>         0.4077
     43 H12        -6.7056   -8.2624   -1.8948 H         1 <0>         0.4148
     44 H13        -7.2194   -7.1279   -3.0225 H         1 <0>         0.4271
     45 H14         4.4769   -0.2005   -0.0418 H         1 <0>         0.3919
     46 H15         6.7924   -0.8819    0.0070 H         1 <0>         0.0615
     47 H16         8.0256    0.3204    0.4562 H         1 <0>         0.0741
     48 H17         6.8007    0.7907    2.5602 H         1 <0>         0.0530
     49 H18         5.5674   -0.4116    2.1110 H         1 <0>         0.0515
     50 H19        -4.8577   -7.8126   -0.5229 H         1 <0>         0.4136
@<TRIPOS>BOND
     1    1    5 2
     2    1    2 1
     3    1   33 1
     4    2    3 2
     5    2   34 1
     6    3    4 1
     7    3   20 1
     8    4    5 1
     9    5    6 1
    10    6    7 1
    11    6   35 1
    12    6   36 1
    13    7    8 1
    14    7   37 1
    15    7   38 1
    16    8   19 1
    17    8    9 1
    18    8   39 1
    19    9   10 1
    20    9   40 1
    21    9   41 1
    22   10   11 1
    23   10   42 1
    24   11   16 1
    25   11   12 2
    26   12   13 1
    27   12   19 1
    28   13   14 am
    29   13   18 2
    30   14   15 1
    31   14   50 1
    32   15   16 2
    33   15   17 1
    34   17   43 1
    35   17   44 1
    36   20   21 2
    37   20   22 am
    38   22   23 1
    39   22   45 1
    40   23   24 1
    41   23   25 1
    42   23   30 1
    43   25   26 1
    44   25   46 1
    45   25   47 1
    46   26   27 1
    47   26   48 1
    48   26   49 1
    49   27   28 2
    50   27   29 1
    51   30   31 2
    52   30   32 1
@<TRIPOS>MOLECULE
CHEMBL84163__3
   50    52     0     0     0
SMALL
USER_CHARGES

@<TRIPOS>ATOM
      1 C1         -0.0163    1.3517    0.0095 C.2       1 <0>        -0.1730
      2 C2          1.1755    2.0360    0.0018 C.2       1 <0>        -0.0995
      3 C3          2.3196    1.2528   -0.0134 C.2       1 <0>        -0.2043
      4 S1          1.6361   -0.3937   -0.0157 S.3       1 <0>         0.2143
      5 C4          0.0021   -0.0041    0.0020 C.2       1 <0>        -0.2238
      6 C5         -1.1743   -0.9460    0.0089 C.3       1 <0>        -0.0309
      7 C6         -1.5870   -1.2570   -1.4311 C.3       1 <0>        -0.0944
      8 C7         -2.7813   -2.2133   -1.4241 C.3       1 <0>        -0.1144
      9 C8         -3.2507   -2.4734   -2.8647 C.3       1 <0>         0.1313
     10 N1         -4.4378   -3.3222   -2.8238 N.pl3     1 <0>        -0.7326
     11 C9         -4.4799   -4.5319   -2.1741 C.2       1 <0>         0.4346
     12 C10        -3.5993   -4.8885   -1.1978 C.2       1 <0>        -0.3414
     13 C11        -3.7354   -6.1455   -0.5680 C.2       1 <0>         0.5592
     14 N2         -4.7179   -6.9763   -0.9482 N.2       1 <0>        -0.6233
     15 C12        -5.5575   -6.6315   -1.9007 C.2       1 <0>         0.6596
     16 N3         -5.4641   -5.4302   -2.5266 N.pl3     1 <0>        -0.6491
     17 N4         -6.5488   -7.5047   -2.2693 N.pl3     1 <0>        -0.8242
     18 O1         -2.9608   -6.4752    0.3195 O.2       1 <0>        -0.5037
     19 S2         -2.2875   -3.8138   -0.7147 S.3       1 <0>        -0.0217
     20 C13         3.7248    1.6700   -0.0245 C.2       1 <0>         0.5938
     21 O2          4.0082    2.8535   -0.0209 O.2       1 <0>        -0.5427
     22 N5          4.7028    0.7428   -0.0389 N.am      1 <0>        -0.6725
     23 C14         6.1072    1.1597   -0.0500 C.3       1 <0>         0.0728
     24 H1          6.2216    2.0669    0.5432 H         1 <0>         0.0800
     25 C15         6.9739    0.0483    0.5454 C.3       1 <0>        -0.0811
     26 C16         6.6191   -0.1395    2.0218 C.3       1 <0>        -0.1789
     27 C17         7.4728   -1.2342    2.6083 C.2       1 <0>         0.4913
     28 O3          8.2893   -1.8108    1.9101 O.co2     1 <0>        -0.6971
     29 O4          7.3470   -1.5433    3.7809 O.co2     1 <0>        -0.7194
     30 C18         6.5400    1.4290   -1.4682 C.2       1 <0>         0.4963
     31 O5          5.7487    1.2859   -2.3847 O.co2     1 <0>        -0.6965
     32 O6          7.6815    1.7899   -1.6991 O.co2     1 <0>        -0.6983
     33 H2         -0.9545    1.8864    0.0258 H         1 <0>         0.1269
     34 H3          1.2182    3.1151    0.0068 H         1 <0>         0.1442
     35 H4         -0.8964   -1.8705    0.5150 H         1 <0>         0.0864
     36 H5         -2.0089   -0.4811    0.5338 H         1 <0>         0.0836
     37 H6         -1.8648   -0.3325   -1.9372 H         1 <0>         0.0860
     38 H7         -0.7524   -1.7219   -1.9560 H         1 <0>         0.0852
     39 H8         -3.5955   -1.7846   -0.8399 H         1 <0>         0.1009
     40 H9         -3.4947   -1.5266   -3.3464 H         1 <0>         0.1061
     41 H10        -2.4604   -2.9767   -3.4216 H         1 <0>         0.0874
     42 H11        -5.2380   -3.0161   -3.2785 H         1 <0>         0.4019
     43 H12        -6.6252   -8.3656   -1.8291 H         1 <0>         0.4313
     44 H13        -7.1736   -7.2612   -2.9703 H         1 <0>         0.4091
     45 H14         4.4769   -0.2005   -0.0418 H         1 <0>         0.3898
     46 H15         6.7924   -0.8819    0.0070 H         1 <0>         0.0565
     47 H16         8.0256    0.3204    0.4562 H         1 <0>         0.0807
     48 H17         6.8007    0.7907    2.5602 H         1 <0>         0.0525
     49 H18         5.5674   -0.4116    2.1110 H         1 <0>         0.0505
     50 H19        -6.0950   -5.2024   -3.2273 H         1 <0>         0.4105
@<TRIPOS>BOND
     1    1    5 2
     2    1    2 1
     3    1   33 1
     4    2    3 2
     5    2   34 1
     6    3    4 1
     7    3   20 1
     8    4    5 1
     9    5    6 1
    10    6    7 1
    11    6   35 1
    12    6   36 1
    13    7    8 1
    14    7   37 1
    15    7   38 1
    16    8   19 1
    17    8    9 1
    18    8   39 1
    19    9   10 1
    20    9   40 1
    21    9   41 1
    22   10   11 1
    23   10   42 1
    24   11   16 1
    25   11   12 2
    26   12   13 1
    27   12   19 1
    28   13   14 1
    29   13   18 2
    30   14   15 2
    31   15   16 1
    32   15   17 1
    33   16   50 1
    34   17   43 1
    35   17   44 1
    36   20   21 2
    37   20   22 am
    38   22   23 1
    39   22   45 1
    40   23   24 1
    41   23   25 1
    42   23   30 1
    43   25   26 1
    44   25   46 1
    45   25   47 1
    46   26   27 1
    47   26   48 1
    48   26   49 1
    49   27   28 2
    50   27   29 1
    51   30   31 2
    52   30   32 1
@<TRIPOS>MOLECULE
CHEMBL590740
   53    55     0     0     0
SMALL
USER_CHARGES

@<TRIPOS>ATOM
      1 C1         -0.0163    1.3517    0.0095 C.2       1 <0>        -0.1768
      2 C2          1.1755    2.0360    0.0018 C.2       1 <0>        -0.0963
      3 C3          2.3196    1.2528   -0.0134 C.2       1 <0>        -0.2094
      4 S1          1.6361   -0.3937   -0.0157 S.3       1 <0>         0.2096
      5 C4          0.0021   -0.0041    0.0020 C.2       1 <0>        -0.2196
      6 C5         -1.1743   -0.9460    0.0089 C.3       1 <0>        -0.0297
      7 C6         -1.5870   -1.2570   -1.4311 C.3       1 <0>        -0.1178
      8 C7         -2.7813   -2.2133   -1.4241 C.3       1 <0>        -0.1143
      9 C8         -3.1941   -2.5244   -2.8642 C.3       1 <0>        -0.0526
     10 C9         -4.3704   -3.4663   -2.8573 C.2       1 <0>         0.0370
     11 C10        -4.2902   -4.8040   -2.7642 C.2       1 <0>        -0.1078
     12 C11        -5.6613   -5.3102   -2.7948 C.2       1 <0>        -0.3147
     13 C12        -6.4932   -4.1875   -2.9087 C.2       1 <0>         0.3414
     14 N1         -5.6868   -3.0877   -2.9392 N.pl3     1 <0>        -0.5424
     15 H1         -5.9984   -2.1719   -3.0107 H         1 <0>         0.4182
     16 N2         -7.8221   -4.3613   -2.9591 N.2       1 <0>        -0.5894
     17 C13        -8.3540   -5.5609   -2.9036 C.2       1 <0>         0.6497
     18 N3         -7.5936   -6.6872   -2.7927 N.am      1 <0>        -0.6629
     19 H2         -8.0206   -7.5573   -2.7547 H         1 <0>         0.4125
     20 C14        -6.2456   -6.5945   -2.7360 C.2       1 <0>         0.5827
     21 O1         -5.5533   -7.5930   -2.6373 O.2       1 <0>        -0.5304
     22 N4         -9.7197   -5.6847   -2.9586 N.pl3     1 <0>        -0.8257
     23 C15         3.7248    1.6700   -0.0245 C.2       1 <0>         0.5873
     24 O2          4.0082    2.8535   -0.0209 O.2       1 <0>        -0.5411
     25 N5          4.7028    0.7428   -0.0389 N.am      1 <0>        -0.6724
     26 C16         6.1072    1.1597   -0.0500 C.3       1 <0>         0.0736
     27 H3          6.2216    2.0669    0.5432 H         1 <0>         0.0799
     28 C17         6.9739    0.0483    0.5454 C.3       1 <0>        -0.0829
     29 C18         6.6191   -0.1395    2.0218 C.3       1 <0>        -0.1782
     30 C19         7.4728   -1.2342    2.6083 C.2       1 <0>         0.4916
     31 O3          8.2893   -1.8108    1.9101 O.co2     1 <0>        -0.6973
     32 O4          7.3470   -1.5433    3.7809 O.co2     1 <0>        -0.7192
     33 C20         6.5400    1.4290   -1.4682 C.2       1 <0>         0.4986
     34 O5          7.4028    2.2600   -1.6949 O.co2     1 <0>        -0.6996
     35 O6          6.0274    0.8157   -2.3889 O.co2     1 <0>        -0.6973
     36 H4         -0.9545    1.8864    0.0258 H         1 <0>         0.1269
     37 H5          1.2182    3.1151    0.0068 H         1 <0>         0.1444
     38 H6         -0.8964   -1.8705    0.5150 H         1 <0>         0.0786
     39 H7         -2.0089   -0.4811    0.5338 H         1 <0>         0.0793
     40 H8         -1.8648   -0.3325   -1.9372 H         1 <0>         0.0671
     41 H9         -0.7524   -1.7219   -1.9560 H         1 <0>         0.0723
     42 H10        -2.5035   -3.1379   -0.9181 H         1 <0>         0.0721
     43 H11        -3.6159   -1.7485   -0.8993 H         1 <0>         0.0616
     44 H12        -3.4719   -1.5998   -3.3703 H         1 <0>         0.0742
     45 H13        -2.3595   -2.9892   -3.3890 H         1 <0>         0.0948
     46 H14        -3.3877   -5.3917   -2.6830 H         1 <0>         0.1522
     47 H15       -10.2757   -4.8937   -3.0371 H         1 <0>         0.4265
     48 H16       -10.1291   -6.5632   -2.9188 H         1 <0>         0.4142
     49 H17         4.4769   -0.2005   -0.0418 H         1 <0>         0.3916
     50 H18         6.7924   -0.8819    0.0070 H         1 <0>         0.0614
     51 H19         8.0256    0.3204    0.4562 H         1 <0>         0.0743
     52 H20         6.8007    0.7907    2.5602 H         1 <0>         0.0532
     53 H21         5.5674   -0.4116    2.1110 H         1 <0>         0.0512
@<TRIPOS>BOND
     1    1    5 2
     2    1    2 1
     3    1   36 1
     4    2    3 2
     5    2   37 1
     6    3    4 1
     7    3   23 1
     8    4    5 1
     9    5    6 1
    10    6    7 1
    11    6   38 1
    12    6   39 1
    13    7    8 1
    14    7   40 1
    15    7   41 1
    16    8    9 1
    17    8   42 1
    18    8   43 1
    19    9   10 1
    20    9   44 1
    21    9   45 1
    22   10   14 1
    23   10   11 2
    24   11   12 1
    25   11   46 1
    26   12   20 1
    27   12   13 2
    28   13   14 1
    29   13   16 1
    30   14   15 1
    31   16   17 2
    32   17   18 1
    33   17   22 1
    34   18   19 1
    35   18   20 am
    36   20   21 2
    37   22   47 1
    38   22   48 1
    39   23   24 2
    40   23   25 am
    41   25   26 1
    42   25   49 1
    43   26   27 1
    44   26   28 1
    45   26   33 1
    46   28   29 1
    47   28   50 1
    48   28   51 1
    49   29   30 1
    50   29   52 1
    51   29   53 1
    52   30   31 2
    53   30   32 1
    54   33   34 2
    55   33   35 1
@<TRIPOS>MOLECULE
CHEMBL170101
   55    57     0     0     0
SMALL
USER_CHARGES

@<TRIPOS>ATOM
      1 C1         -0.0167    1.3794    0.0096 C.ar      1 <0>        -0.1288
      2 C2          1.1667    2.0884    0.0021 C.ar      1 <0>        -0.0644
      3 C3          2.3848    1.4070   -0.0132 C.ar      1 <0>        -0.1113
      4 C4          2.3966    0.0113   -0.0208 C.ar      1 <0>        -0.0822
      5 C5          1.2061   -0.6856   -0.0132 C.ar      1 <0>        -0.1233
      6 C6          0.0021   -0.0041    0.0020 C.ar      1 <0>        -0.0771
      7 C7         -1.2946   -0.7719    0.0103 C.3       1 <0>        -0.0780
      8 C8         -1.7472   -1.0241   -1.4293 C.3       1 <0>        -0.1082
      9 C9         -3.0637   -1.8037   -1.4209 C.3       1 <0>        -0.1026
     10 C10        -3.4640   -2.1495   -2.8559 C.3       1 <0>        -0.0249
     11 C11        -4.8619   -2.7033   -2.8898 C.2       1 <0>        -0.3886
     12 C12        -5.7598   -2.4810   -1.8614 C.2       1 <0>         0.4826
     13 N1         -6.9978   -2.9885   -1.9380 N.2       1 <0>        -0.6234
     14 C13        -7.3780   -3.7034   -2.9752 C.2       1 <0>         0.6589
     15 N2         -6.5306   -3.9549   -4.0100 N.am      1 <0>        -0.6616
     16 C14        -5.2736   -3.4658   -3.9898 C.2       1 <0>         0.5540
     17 O1         -4.5078   -3.6840   -4.9154 O.2       1 <0>        -0.5479
     18 N3         -8.6516   -4.2048   -3.0138 N.pl3     1 <0>        -0.8237
     19 N4         -5.3968   -1.7452   -0.7492 N.pl3     1 <0>        -0.7072
     20 C15        -4.1680   -0.9418   -0.7948 C.3       1 <0>         0.1248
     21 C16         3.6569    2.1603   -0.0218 C.2       1 <0>         0.5431
     22 O2          3.6435    3.3757   -0.0155 O.2       1 <0>        -0.5538
     23 N5          4.8314    1.4994   -0.0366 N.am      1 <0>        -0.6753
     24 C17         6.0919    2.2459   -0.0451 C.3       1 <0>         0.0734
     25 C18         7.1909    1.3839   -0.6698 C.3       1 <0>        -0.0823
     26 C19         6.8626    1.1271   -2.1419 C.3       1 <0>        -0.1773
     27 C20         7.9450    0.2781   -2.7573 C.2       1 <0>         0.4912
     28 O3          8.8913   -0.0876   -2.0810 O.co2     1 <0>        -0.6979
     29 O4          7.8745   -0.0430   -3.9313 O.co2     1 <0>        -0.7191
     30 C21         6.4748    2.6012    1.3685 C.2       1 <0>         0.4985
     31 O5          6.1458    1.8742    2.2903 O.co2     1 <0>        -0.6988
     32 O6          7.1137    3.6157    1.5903 O.co2     1 <0>        -0.7011
     33 H1         -0.9598    1.9054    0.0260 H         1 <0>         0.1213
     34 H2          1.1508    3.1682    0.0077 H         1 <0>         0.1329
     35 H3          3.3358   -0.5219   -0.0330 H         1 <0>         0.1292
     36 H4          1.2138   -1.7656   -0.0191 H         1 <0>         0.1237
     37 H5         -1.1489   -1.7256    0.5176 H         1 <0>         0.0720
     38 H6         -2.0557   -0.1941    0.5345 H         1 <0>         0.0702
     39 H7         -1.8929   -0.0704   -1.9367 H         1 <0>         0.0698
     40 H8         -0.9861   -1.6019   -1.9536 H         1 <0>         0.0747
     41 H9         -2.9424   -2.7194   -0.8422 H         1 <0>         0.0787
     42 H10        -3.4173   -1.2502   -3.4701 H         1 <0>         0.0618
     43 H11        -2.7723   -2.8916   -3.2545 H         1 <0>         0.0742
     44 H12        -9.2635   -4.0317   -2.2813 H         1 <0>         0.4270
     45 H13        -8.9420   -4.7331   -3.7737 H         1 <0>         0.4141
     46 H14        -5.9461   -1.7589    0.0502 H         1 <0>         0.4069
     47 H15        -3.8802   -0.6504    0.2154 H         1 <0>         0.0918
     48 H16        -4.3314   -0.0525   -1.4034 H         1 <0>         0.0693
     49 H17         4.8421    0.5294   -0.0416 H         1 <0>         0.3915
     50 H18         5.9699    3.1583   -0.6287 H         1 <0>         0.0780
     51 H19         8.1462    1.9034   -0.5958 H         1 <0>         0.0727
     52 H20         7.2523    0.4333   -0.1400 H         1 <0>         0.0602
     53 H21         5.9072    0.6076   -2.2159 H         1 <0>         0.0512
     54 H22         6.8012    2.0777   -2.6717 H         1 <0>         0.0528
     55 H23        -6.8310   -4.4872   -4.7633 H         1 <0>         0.4083
@<TRIPOS>BOND
     1    1    6 ar
     2    1    2 ar
     3    1   33 1
     4    2    3 ar
     5    2   34 1
     6    3    4 ar
     7    3   21 1
     8    4    5 ar
     9    4   35 1
    10    5    6 ar
    11    5   36 1
    12    6    7 1
    13    7    8 1
    14    7   37 1
    15    7   38 1
    16    8    9 1
    17    8   39 1
    18    8   40 1
    19    9   20 1
    20    9   10 1
    21    9   41 1
    22   10   11 1
    23   10   42 1
    24   10   43 1
    25   11   16 1
    26   11   12 2
    27   12   13 1
    28   12   19 1
    29   13   14 2
    30   14   15 1
    31   14   18 1
    32   15   16 am
    33   15   55 1
    34   16   17 2
    35   18   44 1
    36   18   45 1
    37   19   20 1
    38   19   46 1
    39   20   47 1
    40   20   48 1
    41   21   22 2
    42   21   23 am
    43   23   24 1
    44   23   49 1
    45   24   25 1
    46   24   30 1
    47   24   50 1
    48   25   26 1
    49   25   51 1
    50   25   52 1
    51   26   27 1
    52   26   53 1
    53   26   54 1
    54   27   28 2
    55   27   29 1
    56   30   31 2
    57   30   32 1
@<TRIPOS>MOLECULE
CHEMBL170101__1
   55    57     0     0     0
SMALL
USER_CHARGES

@<TRIPOS>ATOM
      1 C1         -0.0167    1.3794    0.0096 C.ar      1 <0>        -0.1288
      2 C2          1.1667    2.0884    0.0021 C.ar      1 <0>        -0.0647
      3 C3          2.3848    1.4070   -0.0132 C.ar      1 <0>        -0.1086
      4 C4          2.3966    0.0113   -0.0208 C.ar      1 <0>        -0.0823
      5 C5          1.2061   -0.6856   -0.0132 C.ar      1 <0>        -0.1230
      6 C6          0.0021   -0.0041    0.0020 C.ar      1 <0>        -0.0791
      7 C7         -1.2946   -0.7719    0.0103 C.3       1 <0>        -0.0771
      8 C8         -1.7472   -1.0241   -1.4293 C.3       1 <0>        -0.1090
      9 C9         -3.0637   -1.8037   -1.4209 C.3       1 <0>        -0.1051
     10 C10        -3.4659   -2.1472   -2.8560 C.3       1 <0>        -0.0332
     11 C11        -4.8674   -2.6924   -2.8912 C.2       1 <0>        -0.3416
     12 C12        -5.7522   -2.4694   -1.8825 C.2       1 <0>         0.4434
     13 N1         -7.0195   -2.9859   -1.9763 N.pl3     1 <0>        -0.6544
     14 C13        -7.3818   -3.7178   -3.0650 C.2       1 <0>         0.6578
     15 N2         -6.5334   -3.9447   -4.0446 N.2       1 <0>        -0.6349
     16 C14        -5.2833   -3.4586   -4.0015 C.2       1 <0>         0.5434
     17 O1         -4.5073   -3.6789   -4.9202 O.2       1 <0>        -0.5259
     18 N3         -8.6509   -4.2271   -3.1419 N.pl3     1 <0>        -0.8256
     19 N4         -5.4004   -1.7421   -0.7685 N.pl3     1 <0>        -0.7319
     20 C15        -4.1686   -0.9419   -0.7946 C.3       1 <0>         0.1299
     21 C16         3.6569    2.1603   -0.0218 C.2       1 <0>         0.5475
     22 O2          3.6435    3.3757   -0.0155 O.2       1 <0>        -0.5559
     23 N5          4.8314    1.4994   -0.0366 N.am      1 <0>        -0.6743
     24 C17         6.0919    2.2459   -0.0451 C.3       1 <0>         0.0725
     25 C18         7.1909    1.3839   -0.6698 C.3       1 <0>        -0.0811
     26 C19         6.8626    1.1271   -2.1419 C.3       1 <0>        -0.1777
     27 C20         7.9450    0.2781   -2.7573 C.2       1 <0>         0.4910
     28 O3          8.8913   -0.0876   -2.0810 O.co2     1 <0>        -0.6977
     29 O4          7.8745   -0.0430   -3.9313 O.co2     1 <0>        -0.7191
     30 C21         6.4748    2.6012    1.3685 C.2       1 <0>         0.4973
     31 O5          5.8674    2.1124    2.3058 O.co2     1 <0>        -0.6983
     32 O6          7.3921    3.3775    1.5748 O.co2     1 <0>        -0.7007
     33 H1         -0.9598    1.9054    0.0260 H         1 <0>         0.1205
     34 H2          1.1508    3.1682    0.0077 H         1 <0>         0.1328
     35 H3          3.3358   -0.5219   -0.0330 H         1 <0>         0.1290
     36 H4          1.2138   -1.7656   -0.0191 H         1 <0>         0.1236
     37 H5         -1.1489   -1.7256    0.5176 H         1 <0>         0.0718
     38 H6         -2.0557   -0.1941    0.5345 H         1 <0>         0.0688
     39 H7         -1.8929   -0.0704   -1.9367 H         1 <0>         0.0706
     40 H8         -0.9861   -1.6019   -1.9536 H         1 <0>         0.0768
     41 H9         -2.9425   -2.7199   -0.8430 H         1 <0>         0.0799
     42 H10        -3.4131   -1.2484   -3.4702 H         1 <0>         0.0688
     43 H11        -2.7786   -2.8936   -3.2542 H         1 <0>         0.0825
     44 H12        -9.2829   -4.0650   -2.4242 H         1 <0>         0.4086
     45 H13        -8.9177   -4.7499   -3.9142 H         1 <0>         0.4304
     46 H14        -5.9587   -1.7579    0.0245 H         1 <0>         0.4017
     47 H15        -3.8881   -0.6627    0.2210 H         1 <0>         0.0945
     48 H16        -4.3231   -0.0457   -1.3955 H         1 <0>         0.0721
     49 H17         4.8421    0.5294   -0.0416 H         1 <0>         0.3901
     50 H18         5.9699    3.1583   -0.6287 H         1 <0>         0.0784
     51 H19         8.1462    1.9034   -0.5958 H         1 <0>         0.0772
     52 H20         7.2523    0.4333   -0.1400 H         1 <0>         0.0565
     53 H21         5.9072    0.6076   -2.2159 H         1 <0>         0.0506
     54 H22         6.8012    2.0777   -2.6717 H         1 <0>         0.0527
     55 H23        -7.6594   -2.8292   -1.2643 H         1 <0>         0.4094
@<TRIPOS>BOND
     1    1    6 ar
     2    1    2 ar
     3    1   33 1
     4    2    3 ar
     5    2   34 1
     6    3    4 ar
     7    3   21 1
     8    4    5 ar
     9    4   35 1
    10    5    6 ar
    11    5   36 1
    12    6    7 1
    13    7    8 1
    14    7   37 1
    15    7   38 1
    16    8    9 1
    17    8   39 1
    18    8   40 1
    19    9   20 1
    20    9   10 1
    21    9   41 1
    22   10   11 1
    23   10   42 1
    24   10   43 1
    25   11   16 1
    26   11   12 2
    27   12   13 1
    28   12   19 1
    29   13   14 1
    30   13   55 1
    31   14   15 2
    32   14   18 1
    33   15   16 1
    34   16   17 2
    35   18   44 1
    36   18   45 1
    37   19   20 1
    38   19   46 1
    39   20   47 1
    40   20   48 1
    41   21   22 2
    42   21   23 am
    43   23   24 1
    44   23   49 1
    45   24   25 1
    46   24   30 1
    47   24   50 1
    48   25   26 1
    49   25   51 1
    50   25   52 1
    51   26   27 1
    52   26   53 1
    53   26   54 1
    54   27   28 2
    55   27   29 1
    56   30   31 2
    57   30   32 1
@<TRIPOS>MOLECULE
CHEMBL170101__2
   55    57     0     0     0
SMALL
USER_CHARGES

@<TRIPOS>ATOM
      1 C1         -0.0167    1.3794    0.0096 C.ar      1 <0>        -0.1287
      2 C2          1.1667    2.0884    0.0021 C.ar      1 <0>        -0.0647
      3 C3          2.3848    1.4070   -0.0132 C.ar      1 <0>        -0.1088
      4 C4          2.3966    0.0113   -0.0208 C.ar      1 <0>        -0.0832
      5 C5          1.2061   -0.6856   -0.0132 C.ar      1 <0>        -0.1235
      6 C6          0.0021   -0.0041    0.0020 C.ar      1 <0>        -0.0782
      7 C7         -1.2946   -0.7719    0.0103 C.3       1 <0>        -0.0777
      8 C8         -1.7472   -1.0241   -1.4293 C.3       1 <0>        -0.1083
      9 C9         -3.0637   -1.8037   -1.4209 C.3       1 <0>        -0.1026
     10 C10        -3.4640   -2.1495   -2.8559 C.3       1 <0>        -0.0248
     11 C11        -4.8619   -2.7033   -2.8898 C.2       1 <0>        -0.3886
     12 C12        -5.7598   -2.4810   -1.8614 C.2       1 <0>         0.4826
     13 N1         -6.9978   -2.9885   -1.9380 N.2       1 <0>        -0.6234
     14 C13        -7.3780   -3.7034   -2.9752 C.2       1 <0>         0.6589
     15 N2         -6.5306   -3.9549   -4.0100 N.am      1 <0>        -0.6616
     16 C14        -5.2736   -3.4658   -3.9898 C.2       1 <0>         0.5542
     17 O1         -4.5078   -3.6840   -4.9154 O.2       1 <0>        -0.5484
     18 N3         -8.6516   -4.2048   -3.0138 N.pl3     1 <0>        -0.8237
     19 N4         -5.3968   -1.7452   -0.7492 N.pl3     1 <0>        -0.7070
     20 C15        -4.1680   -0.9418   -0.7948 C.3       1 <0>         0.1248
     21 C16         3.6569    2.1603   -0.0218 C.2       1 <0>         0.5500
     22 O2          3.6435    3.3757   -0.0155 O.2       1 <0>        -0.5552
     23 N5          4.8314    1.4994   -0.0366 N.am      1 <0>        -0.6757
     24 C17         6.0919    2.2459   -0.0451 C.3       1 <0>         0.0724
     25 C18         7.2027    1.3778    0.5494 C.3       1 <0>        -0.0805
     26 C19         6.9032    1.1060    2.0250 C.3       1 <0>        -0.1778
     27 C20         7.9973    0.2510    2.6105 C.2       1 <0>         0.4910
     28 O3          8.9302   -0.1078    1.9123 O.co2     1 <0>        -0.6970
     29 O4          7.9496   -0.0820    3.7824 O.co2     1 <0>        -0.7204
     30 C21         6.4472    2.6155   -1.4622 C.2       1 <0>         0.4956
     31 O5          5.7154    2.2860   -2.3799 O.co2     1 <0>        -0.6965
     32 O6          7.4666    3.2441   -1.6909 O.co2     1 <0>        -0.7001
     33 H1         -0.9598    1.9054    0.0260 H         1 <0>         0.1210
     34 H2          1.1508    3.1682    0.0077 H         1 <0>         0.1327
     35 H3          3.3358   -0.5219   -0.0330 H         1 <0>         0.1282
     36 H4          1.2138   -1.7656   -0.0191 H         1 <0>         0.1232
     37 H5         -1.1489   -1.7256    0.5176 H         1 <0>         0.0718
     38 H6         -2.0557   -0.1941    0.5345 H         1 <0>         0.0700
     39 H7         -1.8929   -0.0704   -1.9367 H         1 <0>         0.0700
     40 H8         -0.9861   -1.6019   -1.9536 H         1 <0>         0.0745
     41 H9         -2.9424   -2.7194   -0.8422 H         1 <0>         0.0787
     42 H10        -3.4173   -1.2502   -3.4701 H         1 <0>         0.0619
     43 H11        -2.7723   -2.8916   -3.2545 H         1 <0>         0.0740
     44 H12        -9.2635   -4.0317   -2.2813 H         1 <0>         0.4270
     45 H13        -8.9420   -4.7331   -3.7737 H         1 <0>         0.4140
     46 H14        -5.9461   -1.7589    0.0502 H         1 <0>         0.4069
     47 H15        -3.8802   -0.6504    0.2154 H         1 <0>         0.0919
     48 H16        -4.3314   -0.0525   -1.4034 H         1 <0>         0.0694
     49 H17         4.8421    0.5294   -0.0416 H         1 <0>         0.3893
     50 H18         5.9814    3.1523    0.5501 H         1 <0>         0.0779
     51 H19         7.2537    0.4325    0.0090 H         1 <0>         0.0551
     52 H20         8.1565    1.8981    0.4621 H         1 <0>         0.0793
     53 H21         6.8522    2.0513    2.5654 H         1 <0>         0.0522
     54 H22         5.9494    0.5857    2.1123 H         1 <0>         0.0500
     55 H23        -6.8310   -4.4872   -4.7633 H         1 <0>         0.4083
@<TRIPOS>BOND
     1    1    6 ar
     2    1    2 ar
     3    1   33 1
     4    2    3 ar
     5    2   34 1
     6    3    4 ar
     7    3   21 1
     8    4    5 ar
     9    4   35 1
    10    5    6 ar
    11    5   36 1
    12    6    7 1
    13    7    8 1
    14    7   37 1
    15    7   38 1
    16    8    9 1
    17    8   39 1
    18    8   40 1
    19    9   20 1
    20    9   10 1
    21    9   41 1
    22   10   11 1
    23   10   42 1
    24   10   43 1
    25   11   16 1
    26   11   12 2
    27   12   13 1
    28   12   19 1
    29   13   14 2
    30   14   15 1
    31   14   18 1
    32   15   16 am
    33   15   55 1
    34   16   17 2
    35   18   44 1
    36   18   45 1
    37   19   20 1
    38   19   46 1
    39   20   47 1
    40   20   48 1
    41   21   22 2
    42   21   23 am
    43   23   24 1
    44   23   49 1
    45   24   25 1
    46   24   30 1
    47   24   50 1
    48   25   26 1
    49   25   51 1
    50   25   52 1
    51   26   27 1
    52   26   53 1
    53   26   54 1
    54   27   28 2
    55   27   29 1
    56   30   31 2
    57   30   32 1
@<TRIPOS>MOLECULE
CHEMBL170101__3
   55    57     0     0     0
SMALL
USER_CHARGES

@<TRIPOS>ATOM
      1 C1         -0.0167    1.3794    0.0096 C.ar      1 <0>        -0.1282
      2 C2          1.1667    2.0884    0.0021 C.ar      1 <0>        -0.0640
      3 C3          2.3848    1.4070   -0.0132 C.ar      1 <0>        -0.1113
      4 C4          2.3966    0.0113   -0.0208 C.ar      1 <0>        -0.0826
      5 C5          1.2061   -0.6856   -0.0132 C.ar      1 <0>        -0.1240
      6 C6          0.0021   -0.0041    0.0020 C.ar      1 <0>        -0.0771
      7 C7         -1.2946   -0.7719    0.0103 C.3       1 <0>        -0.0780
      8 C8         -1.7472   -1.0241   -1.4293 C.3       1 <0>        -0.1083
      9 C9         -3.0637   -1.8037   -1.4209 C.3       1 <0>        -0.1021
     10 C10        -3.5733   -1.9650   -2.8539 C.3       1 <0>        -0.0246
     11 C11        -4.7313   -2.9238   -2.8923 C.2       1 <0>        -0.3894
     12 C12        -4.9582   -3.8348   -1.8764 C.2       1 <0>         0.4833
     13 N1         -5.9992   -4.6749   -1.9566 N.2       1 <0>        -0.6230
     14 C13        -6.8189   -4.6476   -2.9856 C.2       1 <0>         0.6589
     15 N2         -6.6420   -3.7669   -4.0079 N.am      1 <0>        -0.6616
     16 C14        -5.6085   -2.9003   -3.9835 C.2       1 <0>         0.5543
     17 O1         -5.4409   -2.1083   -4.8976 O.2       1 <0>        -0.5495
     18 N3         -7.8708   -5.5233   -3.0288 N.pl3     1 <0>        -0.8237
     19 N4         -4.1279   -3.8883   -0.7729 N.pl3     1 <0>        -0.7066
     20 C15        -2.8330   -3.1964   -0.8196 C.3       1 <0>         0.1238
     21 C16         3.6569    2.1603   -0.0218 C.2       1 <0>         0.5430
     22 O2          3.6435    3.3757   -0.0155 O.2       1 <0>        -0.5534
     23 N5          4.8314    1.4994   -0.0366 N.am      1 <0>        -0.6753
     24 C17         6.0919    2.2459   -0.0451 C.3       1 <0>         0.0734
     25 C18         7.1909    1.3839   -0.6698 C.3       1 <0>        -0.0822
     26 C19         6.8626    1.1271   -2.1419 C.3       1 <0>        -0.1773
     27 C20         7.9450    0.2781   -2.7573 C.2       1 <0>         0.4912
     28 O3          8.8913   -0.0876   -2.0810 O.co2     1 <0>        -0.6978
     29 O4          7.8745   -0.0430   -3.9313 O.co2     1 <0>        -0.7193
     30 C21         6.4748    2.6012    1.3685 C.2       1 <0>         0.4984
     31 O5          6.1458    1.8742    2.2903 O.co2     1 <0>        -0.6989
     32 O6          7.1137    3.6157    1.5903 O.co2     1 <0>        -0.7010
     33 H1         -0.9598    1.9054    0.0260 H         1 <0>         0.1217
     34 H2          1.1508    3.1682    0.0077 H         1 <0>         0.1330
     35 H3          3.3358   -0.5219   -0.0330 H         1 <0>         0.1292
     36 H4          1.2138   -1.7656   -0.0191 H         1 <0>         0.1234
     37 H5         -1.1489   -1.7256    0.5176 H         1 <0>         0.0712
     38 H6         -2.0557   -0.1941    0.5345 H         1 <0>         0.0709
     39 H7         -1.8929   -0.0704   -1.9367 H         1 <0>         0.0733
     40 H8         -0.9861   -1.6019   -1.9536 H         1 <0>         0.0713
     41 H9         -3.8026   -1.2666   -0.8262 H         1 <0>         0.0778
     42 H10        -3.8951   -0.9953   -3.2335 H         1 <0>         0.0730
     43 H11        -2.7683   -2.3462   -3.4822 H         1 <0>         0.0625
     44 H12        -8.0058   -6.1553   -2.3055 H         1 <0>         0.4271
     45 H13        -8.4810   -5.5115   -3.7828 H         1 <0>         0.4140
     46 H14        -4.3965   -4.3758    0.0215 H         1 <0>         0.4071
     47 H15        -2.1377   -3.7572   -1.4443 H         1 <0>         0.0707
     48 H16        -2.4294   -3.1006    0.1883 H         1 <0>         0.0924
     49 H17         4.8421    0.5294   -0.0416 H         1 <0>         0.3914
     50 H18         5.9699    3.1583   -0.6287 H         1 <0>         0.0780
     51 H19         8.1462    1.9034   -0.5958 H         1 <0>         0.0727
     52 H20         7.2523    0.4333   -0.1400 H         1 <0>         0.0601
     53 H21         5.9072    0.6076   -2.2159 H         1 <0>         0.0512
     54 H22         6.8012    2.0777   -2.6717 H         1 <0>         0.0528
     55 H23        -7.2599   -3.7625   -4.7556 H         1 <0>         0.4082
@<TRIPOS>BOND
     1    1    6 ar
     2    1    2 ar
     3    1   33 1
     4    2    3 ar
     5    2   34 1
     6    3    4 ar
     7    3   21 1
     8    4    5 ar
     9    4   35 1
    10    5    6 ar
    11    5   36 1
    12    6    7 1
    13    7    8 1
    14    7   37 1
    15    7   38 1
    16    8    9 1
    17    8   39 1
    18    8   40 1
    19    9   20 1
    20    9   10 1
    21    9   41 1
    22   10   11 1
    23   10   42 1
    24   10   43 1
    25   11   16 1
    26   11   12 2
    27   12   13 1
    28   12   19 1
    29   13   14 2
    30   14   15 1
    31   14   18 1
    32   15   16 am
    33   15   55 1
    34   16   17 2
    35   18   44 1
    36   18   45 1
    37   19   20 1
    38   19   46 1
    39   20   47 1
    40   20   48 1
    41   21   22 2
    42   21   23 am
    43   23   24 1
    44   23   49 1
    45   24   25 1
    46   24   30 1
    47   24   50 1
    48   25   26 1
    49   25   51 1
    50   25   52 1
    51   26   27 1
    52   26   53 1
    53   26   54 1
    54   27   28 2
    55   27   29 1
    56   30   31 2
    57   30   32 1
@<TRIPOS>MOLECULE
CHEMBL170101__4
   55    57     0     0     0
SMALL
USER_CHARGES

@<TRIPOS>ATOM
      1 C1         -0.0167    1.3794    0.0096 C.ar      1 <0>        -0.1277
      2 C2          1.1667    2.0884    0.0021 C.ar      1 <0>        -0.0639
      3 C3          2.3848    1.4070   -0.0132 C.ar      1 <0>        -0.1086
      4 C4          2.3966    0.0113   -0.0208 C.ar      1 <0>        -0.0831
      5 C5          1.2061   -0.6856   -0.0132 C.ar      1 <0>        -0.1241
      6 C6          0.0021   -0.0041    0.0020 C.ar      1 <0>        -0.0791
      7 C7         -1.2946   -0.7719    0.0103 C.3       1 <0>        -0.0770
      8 C8         -1.7472   -1.0241   -1.4293 C.3       1 <0>        -0.1091
      9 C9         -3.0637   -1.8037   -1.4209 C.3       1 <0>        -0.1046
     10 C10        -3.5722   -1.9677   -2.8540 C.3       1 <0>        -0.0329
     11 C11        -4.7244   -2.9339   -2.8939 C.2       1 <0>        -0.3427
     12 C12        -4.9446   -3.8333   -1.8976 C.2       1 <0>         0.4444
     13 N1         -6.0077   -4.6946   -1.9951 N.pl3     1 <0>        -0.6543
     14 C13        -6.8337   -4.6432   -3.0756 C.2       1 <0>         0.6580
     15 N2         -6.6336   -3.7749   -4.0435 N.2       1 <0>        -0.6354
     16 C14        -5.6069   -2.9120   -3.9954 C.2       1 <0>         0.5440
     17 O1         -5.4358   -2.1108   -4.9029 O.2       1 <0>        -0.5275
     18 N3         -7.8907   -5.5105   -3.1570 N.pl3     1 <0>        -0.8255
     19 N4         -4.1270   -3.8926   -0.7923 N.pl3     1 <0>        -0.7315
     20 C15        -2.8334   -3.1969   -0.8195 C.3       1 <0>         0.1289
     21 C16         3.6569    2.1603   -0.0218 C.2       1 <0>         0.5474
     22 O2          3.6435    3.3757   -0.0155 O.2       1 <0>        -0.5552
     23 N5          4.8314    1.4994   -0.0366 N.am      1 <0>        -0.6745
     24 C17         6.0919    2.2459   -0.0451 C.3       1 <0>         0.0724
     25 C18         7.1909    1.3839   -0.6698 C.3       1 <0>        -0.0809
     26 C19         6.8626    1.1271   -2.1419 C.3       1 <0>        -0.1777
     27 C20         7.9450    0.2781   -2.7573 C.2       1 <0>         0.4910
     28 O3          8.8913   -0.0876   -2.0810 O.co2     1 <0>        -0.6977
     29 O4          7.8745   -0.0430   -3.9313 O.co2     1 <0>        -0.7193
     30 C21         6.4748    2.6012    1.3685 C.2       1 <0>         0.4973
     31 O5          5.8674    2.1124    2.3058 O.co2     1 <0>        -0.6984
     32 O6          7.3921    3.3775    1.5748 O.co2     1 <0>        -0.7006
     33 H1         -0.9598    1.9054    0.0260 H         1 <0>         0.1216
     34 H2          1.1508    3.1682    0.0077 H         1 <0>         0.1332
     35 H3          3.3358   -0.5219   -0.0330 H         1 <0>         0.1286
     36 H4          1.2138   -1.7656   -0.0191 H         1 <0>         0.1225
     37 H5         -1.1489   -1.7256    0.5176 H         1 <0>         0.0698
     38 H6         -2.0557   -0.1941    0.5345 H         1 <0>         0.0708
     39 H7         -1.8929   -0.0704   -1.9367 H         1 <0>         0.0753
     40 H8         -0.9861   -1.6019   -1.9536 H         1 <0>         0.0721
     41 H9         -3.8031   -1.2665   -0.8269 H         1 <0>         0.0790
     42 H10        -3.8999   -0.9999   -3.2333 H         1 <0>         0.0813
     43 H11        -2.7647   -2.3435   -3.4823 H         1 <0>         0.0694
     44 H12        -8.0455   -6.1542   -2.4481 H         1 <0>         0.4088
     45 H13        -8.4844   -5.4809   -3.9234 H         1 <0>         0.4303
     46 H14        -4.4017   -4.3875   -0.0045 H         1 <0>         0.4019
     47 H15        -2.1277   -3.7533   -1.4364 H         1 <0>         0.0735
     48 H16        -2.4439   -3.1017    0.1941 H         1 <0>         0.0950
     49 H17         4.8421    0.5294   -0.0416 H         1 <0>         0.3898
     50 H18         5.9699    3.1583   -0.6287 H         1 <0>         0.0785
     51 H19         8.1462    1.9034   -0.5958 H         1 <0>         0.0772
     52 H20         7.2523    0.4333   -0.1400 H         1 <0>         0.0563
     53 H21         5.9072    0.6076   -2.2159 H         1 <0>         0.0505
     54 H22         6.8012    2.0777   -2.6717 H         1 <0>         0.0528
     55 H23        -6.1712   -5.3425   -1.2920 H         1 <0>         0.4096
@<TRIPOS>BOND
     1    1    6 ar
     2    1    2 ar
     3    1   33 1
     4    2    3 ar
     5    2   34 1
     6    3    4 ar
     7    3   21 1
     8    4    5 ar
     9    4   35 1
    10    5    6 ar
    11    5   36 1
    12    6    7 1
    13    7    8 1
    14    7   37 1
    15    7   38 1
    16    8    9 1
    17    8   39 1
    18    8   40 1
    19    9   20 1
    20    9   10 1
    21    9   41 1
    22   10   11 1
    23   10   42 1
    24   10   43 1
    25   11   16 1
    26   11   12 2
    27   12   13 1
    28   12   19 1
    29   13   14 1
    30   13   55 1
    31   14   15 2
    32   14   18 1
    33   15   16 1
    34   16   17 2
    35   18   44 1
    36   18   45 1
    37   19   20 1
    38   19   46 1
    39   20   47 1
    40   20   48 1
    41   21   22 2
    42   21   23 am
    43   23   24 1
    44   23   49 1
    45   24   25 1
    46   24   30 1
    47   24   50 1
    48   25   26 1
    49   25   51 1
    50   25   52 1
    51   26   27 1
    52   26   53 1
    53   26   54 1
    54   27   28 2
    55   27   29 1
    56   30   31 2
    57   30   32 1
@<TRIPOS>MOLECULE
CHEMBL170101__5
   55    57     0     0     0
SMALL
USER_CHARGES

@<TRIPOS>ATOM
      1 C1         -0.0167    1.3794    0.0096 C.ar      1 <0>        -0.1281
      2 C2          1.1667    2.0884    0.0021 C.ar      1 <0>        -0.0643
      3 C3          2.3848    1.4070   -0.0132 C.ar      1 <0>        -0.1088
      4 C4          2.3966    0.0113   -0.0208 C.ar      1 <0>        -0.0836
      5 C5          1.2061   -0.6856   -0.0132 C.ar      1 <0>        -0.1241
      6 C6          0.0021   -0.0041    0.0020 C.ar      1 <0>        -0.0782
      7 C7         -1.2946   -0.7719    0.0103 C.3       1 <0>        -0.0777
      8 C8         -1.7472   -1.0241   -1.4293 C.3       1 <0>        -0.1085
      9 C9         -3.0637   -1.8037   -1.4209 C.3       1 <0>        -0.1020
     10 C10        -3.5733   -1.9650   -2.8539 C.3       1 <0>        -0.0246
     11 C11        -4.7313   -2.9238   -2.8923 C.2       1 <0>        -0.3894
     12 C12        -4.9582   -3.8348   -1.8764 C.2       1 <0>         0.4833
     13 N1         -5.9992   -4.6749   -1.9566 N.2       1 <0>        -0.6229
     14 C13        -6.8189   -4.6476   -2.9856 C.2       1 <0>         0.6588
     15 N2         -6.6420   -3.7669   -4.0079 N.am      1 <0>        -0.6617
     16 C14        -5.6085   -2.9003   -3.9835 C.2       1 <0>         0.5543
     17 O1         -5.4409   -2.1083   -4.8976 O.2       1 <0>        -0.5496
     18 N3         -7.8708   -5.5233   -3.0288 N.pl3     1 <0>        -0.8237
     19 N4         -4.1279   -3.8883   -0.7729 N.pl3     1 <0>        -0.7065
     20 C15        -2.8330   -3.1964   -0.8196 C.3       1 <0>         0.1239
     21 C16         3.6569    2.1603   -0.0218 C.2       1 <0>         0.5499
     22 O2          3.6435    3.3757   -0.0155 O.2       1 <0>        -0.5549
     23 N5          4.8314    1.4994   -0.0366 N.am      1 <0>        -0.6758
     24 C17         6.0919    2.2459   -0.0451 C.3       1 <0>         0.0724
     25 C18         7.2027    1.3778    0.5494 C.3       1 <0>        -0.0803
     26 C19         6.9032    1.1060    2.0250 C.3       1 <0>        -0.1779
     27 C20         7.9973    0.2510    2.6105 C.2       1 <0>         0.4910
     28 O3          8.9302   -0.1078    1.9123 O.co2     1 <0>        -0.6970
     29 O4          7.9496   -0.0820    3.7824 O.co2     1 <0>        -0.7204
     30 C21         6.4472    2.6155   -1.4622 C.2       1 <0>         0.4955
     31 O5          5.7154    2.2860   -2.3799 O.co2     1 <0>        -0.6965
     32 O6          7.4666    3.2441   -1.6909 O.co2     1 <0>        -0.7001
     33 H1         -0.9598    1.9054    0.0260 H         1 <0>         0.1213
     34 H2          1.1508    3.1682    0.0077 H         1 <0>         0.1328
     35 H3          3.3358   -0.5219   -0.0330 H         1 <0>         0.1281
     36 H4          1.2138   -1.7656   -0.0191 H         1 <0>         0.1228
     37 H5         -1.1489   -1.7256    0.5176 H         1 <0>         0.0710
     38 H6         -2.0557   -0.1941    0.5345 H         1 <0>         0.0707
     39 H7         -1.8929   -0.0704   -1.9367 H         1 <0>         0.0735
     40 H8         -0.9861   -1.6019   -1.9536 H         1 <0>         0.0711
     41 H9         -3.8026   -1.2666   -0.8262 H         1 <0>         0.0778
     42 H10        -3.8951   -0.9953   -3.2335 H         1 <0>         0.0731
     43 H11        -2.7683   -2.3462   -3.4822 H         1 <0>         0.0623
     44 H12        -8.0058   -6.1553   -2.3055 H         1 <0>         0.4271
     45 H13        -8.4810   -5.5115   -3.7828 H         1 <0>         0.4140
     46 H14        -4.3965   -4.3758    0.0215 H         1 <0>         0.4072
     47 H15        -2.1377   -3.7572   -1.4443 H         1 <0>         0.0705
     48 H16        -2.4294   -3.1006    0.1883 H         1 <0>         0.0925
     49 H17         4.8421    0.5294   -0.0416 H         1 <0>         0.3891
     50 H18         5.9814    3.1523    0.5501 H         1 <0>         0.0779
     51 H19         7.2537    0.4325    0.0090 H         1 <0>         0.0550
     52 H20         8.1565    1.8981    0.4621 H         1 <0>         0.0792
     53 H21         6.8522    2.0513    2.5654 H         1 <0>         0.0522
     54 H22         5.9494    0.5857    2.1123 H         1 <0>         0.0500
     55 H23        -7.2599   -3.7625   -4.7556 H         1 <0>         0.4081
@<TRIPOS>BOND
     1    1    6 ar
     2    1    2 ar
     3    1   33 1
     4    2    3 ar
     5    2   34 1
     6    3    4 ar
     7    3   21 1
     8    4    5 ar
     9    4   35 1
    10    5    6 ar
    11    5   36 1
    12    6    7 1
    13    7    8 1
    14    7   37 1
    15    7   38 1
    16    8    9 1
    17    8   39 1
    18    8   40 1
    19    9   20 1
    20    9   10 1
    21    9   41 1
    22   10   11 1
    23   10   42 1
    24   10   43 1
    25   11   16 1
    26   11   12 2
    27   12   13 1
    28   12   19 1
    29   13   14 2
    30   14   15 1
    31   14   18 1
    32   15   16 am
    33   15   55 1
    34   16   17 2
    35   18   44 1
    36   18   45 1
    37   19   20 1
    38   19   46 1
    39   20   47 1
    40   20   48 1
    41   21   22 2
    42   21   23 am
    43   23   24 1
    44   23   49 1
    45   24   25 1
    46   24   30 1
    47   24   50 1
    48   25   26 1
    49   25   51 1
    50   25   52 1
    51   26   27 1
    52   26   53 1
    53   26   54 1
    54   27   28 2
    55   27   29 1
    56   30   31 2
    57   30   32 1
@<TRIPOS>MOLECULE
CHEMBL192632
   53    55     0     0     0
SMALL
USER_CHARGES

@<TRIPOS>ATOM
      1 C1         -0.0167    1.3794    0.0096 C.ar      1 <0>        -0.1275
      2 C2          1.1667    2.0884    0.0021 C.ar      1 <0>        -0.0640
      3 C3          2.3848    1.4070   -0.0132 C.ar      1 <0>        -0.1109
      4 C4          2.3966    0.0113   -0.0208 C.ar      1 <0>        -0.0830
      5 C5          1.2061   -0.6856   -0.0132 C.ar      1 <0>        -0.1243
      6 C6          0.0021   -0.0041    0.0020 C.ar      1 <0>        -0.0780
      7 C7         -1.2946   -0.7719    0.0103 C.3       1 <0>        -0.0762
      8 C8         -1.7472   -1.0241   -1.4293 C.3       1 <0>        -0.1129
      9 C9         -3.0637   -1.8037   -1.4209 C.3       1 <0>        -0.0498
     10 C10        -3.5095   -2.0520   -2.8389 C.2       1 <0>         0.0363
     11 C11        -4.2138   -1.1900   -3.5909 C.2       1 <0>        -0.1083
     12 C12        -4.4226   -1.8357   -4.8858 C.2       1 <0>        -0.3159
     13 C13        -3.8000   -3.0893   -4.8058 C.2       1 <0>         0.3442
     14 N1         -3.2527   -3.1906   -3.5604 N.pl3     1 <0>        -0.5418
     15 H1         -2.7565   -3.9566   -3.2320 H         1 <0>         0.4190
     16 N2         -3.8361   -3.9058   -5.8691 N.2       1 <0>        -0.5885
     17 C14        -4.4425   -3.5515   -6.9789 C.2       1 <0>         0.6503
     18 N3         -5.0640   -2.3452   -7.1126 N.am      1 <0>        -0.6627
     19 H2         -5.5024   -2.1169   -7.9471 H         1 <0>         0.4124
     20 C15        -5.0713   -1.4666   -6.0846 C.2       1 <0>         0.5836
     21 O1         -5.6234   -0.3848   -6.1899 O.2       1 <0>        -0.5331
     22 N4         -4.4504   -4.4234   -8.0387 N.pl3     1 <0>        -0.8252
     23 C16         3.6569    2.1603   -0.0218 C.2       1 <0>         0.5429
     24 O2          3.6435    3.3757   -0.0155 O.2       1 <0>        -0.5530
     25 N5          4.8314    1.4994   -0.0366 N.am      1 <0>        -0.6754
     26 C17         6.0919    2.2459   -0.0451 C.3       1 <0>         0.0735
     27 H3          5.9814    3.1523    0.5501 H         1 <0>         0.0780
     28 C18         7.2027    1.3778    0.5494 C.3       1 <0>        -0.0824
     29 C19         6.9032    1.1060    2.0250 C.3       1 <0>        -0.1772
     30 C20         7.9973    0.2510    2.6105 C.2       1 <0>         0.4912
     31 O3          8.9302   -0.1078    1.9123 O.co2     1 <0>        -0.6976
     32 O4          7.9496   -0.0820    3.7824 O.co2     1 <0>        -0.7196
     33 C21         6.4472    2.6155   -1.4622 C.2       1 <0>         0.4983
     34 O5          7.0818    3.6322   -1.6861 O.co2     1 <0>        -0.7009
     35 O6          6.1002    1.8979   -2.3847 O.co2     1 <0>        -0.6988
     36 H4         -0.9598    1.9054    0.0260 H         1 <0>         0.1228
     37 H5          1.1508    3.1682    0.0077 H         1 <0>         0.1336
     38 H6          3.3358   -0.5219   -0.0330 H         1 <0>         0.1291
     39 H7          1.2138   -1.7656   -0.0191 H         1 <0>         0.1227
     40 H8         -1.1489   -1.7256    0.5176 H         1 <0>         0.0716
     41 H9         -2.0557   -0.1941    0.5345 H         1 <0>         0.0732
     42 H10        -1.8929   -0.0704   -1.9367 H         1 <0>         0.0731
     43 H11        -0.9861   -1.6019   -1.9536 H         1 <0>         0.0663
     44 H12        -2.9179   -2.7573   -0.9136 H         1 <0>         0.0738
     45 H13        -3.8248   -1.2258   -0.8967 H         1 <0>         0.0913
     46 H14        -4.5592   -0.2102   -3.2960 H         1 <0>         0.1507
     47 H15        -4.0128   -5.2856   -7.9607 H         1 <0>         0.4270
     48 H16        -4.8937   -4.1776   -8.8657 H         1 <0>         0.4141
     49 H17         4.8421    0.5294   -0.0416 H         1 <0>         0.3912
     50 H18         7.2537    0.4325    0.0090 H         1 <0>         0.0601
     51 H19         8.1565    1.8981    0.4621 H         1 <0>         0.0728
     52 H20         6.8522    2.0513    2.5654 H         1 <0>         0.0529
     53 H21         5.9494    0.5857    2.1123 H         1 <0>         0.0510
@<TRIPOS>BOND
     1    1    6 ar
     2    1    2 ar
     3    1   36 1
     4    2    3 ar
     5    2   37 1
     6    3    4 ar
     7    3   23 1
     8    4    5 ar
     9    4   38 1
    10    5    6 ar
    11    5   39 1
    12    6    7 1
    13    7    8 1
    14    7   40 1
    15    7   41 1
    16    8    9 1
    17    8   42 1
    18    8   43 1
    19    9   10 1
    20    9   44 1
    21    9   45 1
    22   10   14 1
    23   10   11 2
    24   11   12 1
    25   11   46 1
    26   12   20 1
    27   12   13 2
    28   13   14 1
    29   13   16 1
    30   14   15 1
    31   16   17 2
    32   17   18 1
    33   17   22 1
    34   18   19 1
    35   18   20 am
    36   20   21 2
    37   22   47 1
    38   22   48 1
    39   23   24 2
    40   23   25 am
    41   25   26 1
    42   25   49 1
    43   26   27 1
    44   26   28 1
    45   26   33 1
    46   28   29 1
    47   28   50 1
    48   28   51 1
    49   29   30 1
    50   29   52 1
    51   29   53 1
    52   30   31 2
    53   30   32 1
    54   33   34 2
    55   33   35 1
@<TRIPOS>MOLECULE
CHEMBL82390
   53    55     0     0     0
SMALL
USER_CHARGES

@<TRIPOS>ATOM
      1 C1         -0.0184    1.5028    0.0103 C.3       1 <0>        -0.0920
      2 C2          0.0021   -0.0041    0.0020 C.2       1 <0>        -0.1390
      3 C3          0.0059   -0.6942   -1.1864 C.2       1 <0>        -0.0933
      4 C4          0.0251   -2.0766   -1.0801 C.2       1 <0>        -0.2010
      5 S1          0.0365   -2.3077    0.6875 S.3       1 <0>         0.1983
      6 C5          0.0226   -0.6976    1.1670 C.2       1 <0>        -0.2226
      7 C6          0.0288   -0.1496    2.5708 C.3       1 <0>        -0.0296
      8 C7         -1.4114    0.0167    3.0598 C.3       1 <0>        -0.0942
      9 C8         -1.4050    0.5732    4.4850 C.3       1 <0>        -0.1052
     10 C9         -2.8449    0.6717    5.0131 C.3       1 <0>         0.1263
     11 N1         -2.8069    1.1111    6.4046 N.pl3     1 <0>        -0.7077
     12 C10        -2.1630    2.2587    6.8174 C.2       1 <0>         0.4824
     13 C11        -1.1795    2.8799    6.0665 C.2       1 <0>        -0.3937
     14 C12        -0.5581    4.0327    6.5672 C.2       1 <0>         0.5751
     15 N2         -0.9433    4.5091    7.7697 N.am      1 <0>        -0.6564
     16 C13        -1.9245    3.8734    8.4667 C.2       1 <0>         0.6604
     17 N3         -2.5080    2.7923    8.0038 N.2       1 <0>        -0.6148
     18 N4         -2.3130    4.3746    9.6835 N.pl3     1 <0>        -0.8225
     19 O1          0.3167    4.5956    5.9266 O.2       1 <0>        -0.5295
     20 S2         -0.7041    2.2516    4.4896 S.3       1 <0>        -0.0460
     21 C14         0.0339   -3.0850   -2.1438 C.2       1 <0>         0.5944
     22 O2          0.0238   -2.7389   -3.3106 O.2       1 <0>        -0.5418
     23 N5          0.0531   -4.3956   -1.8299 N.am      1 <0>        -0.6731
     24 C15         0.0618   -5.4035   -2.8930 C.3       1 <0>         0.0726
     25 H1          0.6424   -5.0346   -3.7386 H         1 <0>         0.0800
     26 C16         0.6915   -6.6947   -2.3665 C.3       1 <0>        -0.0805
     27 C17         2.1637   -6.4452   -2.0332 C.3       1 <0>        -0.1789
     28 C18         2.7839   -7.7170   -1.5146 C.2       1 <0>         0.4914
     29 O3          2.1107   -8.7291   -1.4203 O.co2     1 <0>        -0.6972
     30 O4          3.9588   -7.7338   -1.1893 O.co2     1 <0>        -0.7198
     31 C19        -1.3521   -5.6784   -3.3362 C.2       1 <0>         0.4962
     32 O5         -2.2809   -5.0872   -2.8125 O.co2     1 <0>        -0.6962
     33 O6         -1.5671   -6.4920   -4.2184 O.co2     1 <0>        -0.6984
     34 H2          1.0042    1.8801    0.0026 H         1 <0>         0.0634
     35 H3         -0.5455    1.8639   -0.8728 H         1 <0>         0.0615
     36 H4         -0.5286    1.8543    0.9071 H         1 <0>         0.0639
     37 H5         -0.0057   -0.1918   -2.1424 H         1 <0>         0.1444
     38 H6          0.5583   -0.8395    3.2278 H         1 <0>         0.0797
     39 H7          0.5299    0.8184    2.5807 H         1 <0>         0.0897
     40 H8         -1.9408    0.7067    2.4027 H         1 <0>         0.0827
     41 H9         -1.9125   -0.9512    3.0499 H         1 <0>         0.0876
     42 H10        -0.8157   -0.0757    5.1328 H         1 <0>         0.1008
     43 H11        -3.4039    1.3932    4.4173 H         1 <0>         0.0835
     44 H12        -3.3242   -0.3053    4.9516 H         1 <0>         0.1061
     45 H13        -3.2564    0.5692    7.0718 H         1 <0>         0.4091
     46 H14        -1.8896    5.1725   10.0369 H         1 <0>         0.4147
     47 H15        -3.0111    3.9309   10.1902 H         1 <0>         0.4277
     48 H16         0.0611   -4.6714   -0.8999 H         1 <0>         0.3891
     49 H17         0.1648   -7.0155   -1.4677 H         1 <0>         0.0558
     50 H18         0.6178   -7.4715   -3.1276 H         1 <0>         0.0806
     51 H19         2.6904   -6.1243   -2.9320 H         1 <0>         0.0528
     52 H20         2.2374   -5.6684   -1.2721 H         1 <0>         0.0503
     53 H21        -0.5219    5.3021    8.1364 H         1 <0>         0.4131
@<TRIPOS>BOND
     1    1    2 1
     2    1   34 1
     3    1   35 1
     4    1   36 1
     5    2    6 2
     6    2    3 1
     7    3    4 2
     8    3   37 1
     9    4    5 1
    10    4   21 1
    11    5    6 1
    12    6    7 1
    13    7    8 1
    14    7   38 1
    15    7   39 1
    16    8    9 1
    17    8   40 1
    18    8   41 1
    19    9   20 1
    20    9   10 1
    21    9   42 1
    22   10   11 1
    23   10   43 1
    24   10   44 1
    25   11   12 1
    26   11   45 1
    27   12   17 1
    28   12   13 2
    29   13   14 1
    30   13   20 1
    31   14   15 am
    32   14   19 2
    33   15   16 1
    34   15   53 1
    35   16   17 2
    36   16   18 1
    37   18   46 1
    38   18   47 1
    39   21   22 2
    40   21   23 am
    41   23   24 1
    42   23   48 1
    43   24   25 1
    44   24   26 1
    45   24   31 1
    46   26   27 1
    47   26   49 1
    48   26   50 1
    49   27   28 1
    50   27   51 1
    51   27   52 1
    52   28   29 2
    53   28   30 1
    54   31   32 2
    55   31   33 1
@<TRIPOS>MOLECULE
CHEMBL82390__1
   53    55     0     0     0
SMALL
USER_CHARGES

@<TRIPOS>ATOM
      1 C1         -0.0184    1.5028    0.0103 C.3       1 <0>        -0.0926
      2 C2          0.0021   -0.0041    0.0020 C.2       1 <0>        -0.1386
      3 C3          0.0059   -0.6942   -1.1864 C.2       1 <0>        -0.0918
      4 C4          0.0251   -2.0766   -1.0801 C.2       1 <0>        -0.2041
      5 S1          0.0365   -2.3077    0.6875 S.3       1 <0>         0.2012
      6 C5          0.0226   -0.6976    1.1670 C.2       1 <0>        -0.2230
      7 C6          0.0288   -0.1496    2.5708 C.3       1 <0>        -0.0303
      8 C7         -1.4114    0.0167    3.0598 C.3       1 <0>        -0.0944
      9 C8         -1.4050    0.5732    4.4850 C.3       1 <0>        -0.1131
     10 C9         -2.8453    0.6739    5.0129 C.3       1 <0>         0.1312
     11 N1         -2.8045    1.1301    6.3990 N.pl3     1 <0>        -0.7314
     12 C10        -2.1601    2.2754    6.7992 C.2       1 <0>         0.4381
     13 C11        -1.1881    2.8835    6.0636 C.2       1 <0>        -0.3442
     14 C12        -0.5635    4.0460    6.5675 C.2       1 <0>         0.5611
     15 N2         -0.9444    4.5438    7.7537 N.2       1 <0>        -0.6251
     16 C13        -1.8928    3.9593    8.4538 C.2       1 <0>         0.6607
     17 N3         -2.5136    2.8374    8.0072 N.pl3     1 <0>        -0.6490
     18 N4         -2.2623    4.4950    9.6610 N.pl3     1 <0>        -0.8237
     19 O1          0.3207    4.5959    5.9256 O.2       1 <0>        -0.5090
     20 S2         -0.7042    2.2517    4.4901 S.3       1 <0>        -0.0285
     21 C14         0.0339   -3.0850   -2.1438 C.2       1 <0>         0.5874
     22 O2          0.0238   -2.7389   -3.3106 O.2       1 <0>        -0.5399
     23 N5          0.0531   -4.3956   -1.8299 N.am      1 <0>        -0.6727
     24 C15         0.0618   -5.4035   -2.8930 C.3       1 <0>         0.0737
     25 H1          0.6424   -5.0346   -3.7386 H         1 <0>         0.0801
     26 C16         0.6915   -6.6947   -2.3665 C.3       1 <0>        -0.0825
     27 C17         2.1637   -6.4452   -2.0332 C.3       1 <0>        -0.1783
     28 C18         2.7839   -7.7170   -1.5146 C.2       1 <0>         0.4916
     29 O3          2.1107   -8.7291   -1.4203 O.co2     1 <0>        -0.6978
     30 O4          3.9588   -7.7338   -1.1893 O.co2     1 <0>        -0.7189
     31 C19        -1.3521   -5.6784   -3.3362 C.2       1 <0>         0.4989
     32 O5         -1.5758   -6.0156   -4.4863 O.co2     1 <0>        -0.6993
     33 O6         -2.2723   -5.5635   -2.5446 O.co2     1 <0>        -0.6981
     34 H2          1.0042    1.8801    0.0026 H         1 <0>         0.0645
     35 H3         -0.5455    1.8639   -0.8728 H         1 <0>         0.0620
     36 H4         -0.5286    1.8543    0.9071 H         1 <0>         0.0637
     37 H5         -0.0057   -0.1918   -2.1424 H         1 <0>         0.1451
     38 H6          0.5583   -0.8395    3.2278 H         1 <0>         0.0804
     39 H7          0.5299    0.8184    2.5807 H         1 <0>         0.0904
     40 H8         -1.9408    0.7067    2.4027 H         1 <0>         0.0833
     41 H9         -1.9125   -0.9512    3.0499 H         1 <0>         0.0880
     42 H10        -0.8163   -0.0760    5.1332 H         1 <0>         0.1030
     43 H11        -3.4068    1.3872    4.4096 H         1 <0>         0.0860
     44 H12        -3.3220   -0.3051    4.9640 H         1 <0>         0.1088
     45 H13        -3.2560    0.5972    7.0721 H         1 <0>         0.4033
     46 H14        -1.8257    5.2962    9.9901 H         1 <0>         0.4312
     47 H15        -2.9603    4.0726   10.1858 H         1 <0>         0.4098
     48 H16         0.0611   -4.6714   -0.8999 H         1 <0>         0.3912
     49 H17         0.1648   -7.0155   -1.4677 H         1 <0>         0.0609
     50 H18         0.6178   -7.4715   -3.1276 H         1 <0>         0.0742
     51 H19         2.6904   -6.1243   -2.9320 H         1 <0>         0.0535
     52 H20         2.2374   -5.6684   -1.2721 H         1 <0>         0.0512
     53 H21        -3.2114    2.4281    8.5424 H         1 <0>         0.4114
@<TRIPOS>BOND
     1    1    2 1
     2    1   34 1
     3    1   35 1
     4    1   36 1
     5    2    6 2
     6    2    3 1
     7    3    4 2
     8    3   37 1
     9    4    5 1
    10    4   21 1
    11    5    6 1
    12    6    7 1
    13    7    8 1
    14    7   38 1
    15    7   39 1
    16    8    9 1
    17    8   40 1
    18    8   41 1
    19    9   20 1
    20    9   10 1
    21    9   42 1
    22   10   11 1
    23   10   43 1
    24   10   44 1
    25   11   12 1
    26   11   45 1
    27   12   17 1
    28   12   13 2
    29   13   14 1
    30   13   20 1
    31   14   15 1
    32   14   19 2
    33   15   16 2
    34   16   17 1
    35   16   18 1
    36   17   53 1
    37   18   46 1
    38   18   47 1
    39   21   22 2
    40   21   23 am
    41   23   24 1
    42   23   48 1
    43   24   25 1
    44   24   26 1
    45   24   31 1
    46   26   27 1
    47   26   49 1
    48   26   50 1
    49   27   28 1
    50   27   51 1
    51   27   52 1
    52   28   29 2
    53   28   30 1
    54   31   32 2
    55   31   33 1
@<TRIPOS>MOLECULE
CHEMBL82390__2
   53    55     0     0     0
SMALL
USER_CHARGES

@<TRIPOS>ATOM
      1 C1         -0.0184    1.5028    0.0103 C.3       1 <0>        -0.0887
      2 C2          0.0021   -0.0041    0.0020 C.2       1 <0>        -0.1436
      3 C3          0.0059   -0.6942   -1.1864 C.2       1 <0>        -0.0949
      4 C4          0.0251   -2.0766   -1.0801 C.2       1 <0>        -0.2027
      5 S1          0.0365   -2.3077    0.6875 S.3       1 <0>         0.2095
      6 C5          0.0226   -0.6976    1.1670 C.2       1 <0>        -0.2228
      7 C6          0.0288   -0.1496    2.5708 C.3       1 <0>        -0.0292
      8 C7         -1.4114    0.0167    3.0598 C.3       1 <0>        -0.0943
      9 C8         -1.4050    0.5732    4.4850 C.3       1 <0>        -0.1062
     10 C9         -2.8473    0.8158    4.9569 C.3       1 <0>         0.1266
     11 N1         -2.8124    1.4363    6.2777 N.pl3     1 <0>        -0.7091
     12 C10        -2.1397    0.8914    7.3511 C.2       1 <0>         0.4797
     13 C11        -1.1295   -0.0447    7.2081 C.2       1 <0>        -0.3917
     14 C12        -0.4801   -0.5346    8.3501 C.2       1 <0>         0.5738
     15 N2         -0.8649   -0.0818    9.5617 N.am      1 <0>        -0.6559
     16 C13        -1.8725    0.8285    9.6552 C.2       1 <0>         0.6601
     17 N3         -2.4824    1.2924    8.5893 N.2       1 <0>        -0.6157
     18 N4         -2.2607    1.2720   10.8943 N.pl3     1 <0>        -0.8229
     19 O1          0.4183   -1.3564    8.2500 O.2       1 <0>        -0.5247
     20 S2         -0.6548   -0.6368    5.6171 S.3       1 <0>        -0.0394
     21 C14         0.0339   -3.0850   -2.1438 C.2       1 <0>         0.5943
     22 O2          0.0238   -2.7389   -3.3106 O.2       1 <0>        -0.5429
     23 N5          0.0531   -4.3956   -1.8299 N.am      1 <0>        -0.6726
     24 C15         0.0618   -5.4035   -2.8930 C.3       1 <0>         0.0729
     25 H1          0.6424   -5.0346   -3.7386 H         1 <0>         0.0799
     26 C16         0.6915   -6.6947   -2.3665 C.3       1 <0>        -0.0810
     27 C17         2.1637   -6.4452   -2.0332 C.3       1 <0>        -0.1788
     28 C18         2.7839   -7.7170   -1.5146 C.2       1 <0>         0.4914
     29 O3          2.1107   -8.7291   -1.4203 O.co2     1 <0>        -0.6970
     30 O4          3.9588   -7.7338   -1.1893 O.co2     1 <0>        -0.7197
     31 C19        -1.3521   -5.6784   -3.3362 C.2       1 <0>         0.4963
     32 O5         -2.2809   -5.0872   -2.8125 O.co2     1 <0>        -0.6961
     33 O6         -1.5671   -6.4920   -4.2184 O.co2     1 <0>        -0.6986
     34 H2          1.0042    1.8801    0.0026 H         1 <0>         0.0618
     35 H3         -0.5455    1.8639   -0.8728 H         1 <0>         0.0614
     36 H4         -0.5286    1.8543    0.9071 H         1 <0>         0.0597
     37 H5         -0.0057   -0.1918   -2.1424 H         1 <0>         0.1437
     38 H6          0.5583   -0.8395    3.2278 H         1 <0>         0.0853
     39 H7          0.5299    0.8184    2.5807 H         1 <0>         0.0833
     40 H8         -1.9408    0.7067    2.4027 H         1 <0>         0.0854
     41 H9         -1.9125   -0.9512    3.0499 H         1 <0>         0.0844
     42 H10        -0.8427    1.5064    4.5153 H         1 <0>         0.0986
     43 H11        -3.3546    1.4781    4.2554 H         1 <0>         0.1034
     44 H12        -3.3778   -0.1347    5.0137 H         1 <0>         0.0847
     45 H13        -3.2855    2.2733    6.4066 H         1 <0>         0.4076
     46 H14        -1.8183    0.9369   11.6899 H         1 <0>         0.4148
     47 H15        -2.9774    1.9206   10.9747 H         1 <0>         0.4271
     48 H16         0.0611   -4.6714   -0.8999 H         1 <0>         0.3897
     49 H17         0.1648   -7.0155   -1.4677 H         1 <0>         0.0563
     50 H18         0.6178   -7.4715   -3.1276 H         1 <0>         0.0806
     51 H19         2.6904   -6.1243   -2.9320 H         1 <0>         0.0525
     52 H20         2.2374   -5.6684   -1.2721 H         1 <0>         0.0505
     53 H21        -0.4249   -0.4044   10.3637 H         1 <0>         0.4135
@<TRIPOS>BOND
     1    1    2 1
     2    1   34 1
     3    1   35 1
     4    1   36 1
     5    2    6 2
     6    2    3 1
     7    3    4 2
     8    3   37 1
     9    4    5 1
    10    4   21 1
    11    5    6 1
    12    6    7 1
    13    7    8 1
    14    7   38 1
    15    7   39 1
    16    8    9 1
    17    8   40 1
    18    8   41 1
    19    9   20 1
    20    9   10 1
    21    9   42 1
    22   10   11 1
    23   10   43 1
    24   10   44 1
    25   11   12 1
    26   11   45 1
    27   12   17 1
    28   12   13 2
    29   13   14 1
    30   13   20 1
    31   14   15 am
    32   14   19 2
    33   15   16 1
    34   15   53 1
    35   16   17 2
    36   16   18 1
    37   18   46 1
    38   18   47 1
    39   21   22 2
    40   21   23 am
    41   23   24 1
    42   23   48 1
    43   24   25 1
    44   24   26 1
    45   24   31 1
    46   26   27 1
    47   26   49 1
    48   26   50 1
    49   27   28 1
    50   27   51 1
    51   27   52 1
    52   28   29 2
    53   28   30 1
    54   31   32 2
    55   31   33 1
@<TRIPOS>MOLECULE
CHEMBL82390__3
   53    55     0     0     0
SMALL
USER_CHARGES

@<TRIPOS>ATOM
      1 C1         -0.0184    1.5028    0.0103 C.3       1 <0>        -0.0886
      2 C2          0.0021   -0.0041    0.0020 C.2       1 <0>        -0.1440
      3 C3          0.0059   -0.6942   -1.1864 C.2       1 <0>        -0.0939
      4 C4          0.0251   -2.0766   -1.0801 C.2       1 <0>        -0.2059
      5 S1          0.0365   -2.3077    0.6875 S.3       1 <0>         0.2149
      6 C5          0.0226   -0.6976    1.1670 C.2       1 <0>        -0.2234
      7 C6          0.0288   -0.1496    2.5708 C.3       1 <0>        -0.0300
      8 C7         -1.4114    0.0167    3.0598 C.3       1 <0>        -0.0945
      9 C8         -1.4050    0.5732    4.4850 C.3       1 <0>        -0.1142
     10 C9         -2.8477    0.8140    4.9582 C.3       1 <0>         0.1314
     11 N1         -2.8094    1.4186    6.2864 N.pl3     1 <0>        -0.7325
     12 C10        -2.1361    0.8668    7.3490 C.2       1 <0>         0.4346
     13 C11        -1.1380   -0.0496    7.2085 C.2       1 <0>        -0.3413
     14 C12        -0.4852   -0.5443    8.3593 C.2       1 <0>         0.5592
     15 N2         -0.8648   -0.1182    9.5735 N.2       1 <0>        -0.6233
     16 C13        -1.8381    0.7575    9.7036 C.2       1 <0>         0.6596
     17 N3         -2.4867    1.2614    8.6224 N.pl3     1 <0>        -0.6492
     18 N4         -2.2056    1.1705   10.9587 N.pl3     1 <0>        -0.8242
     19 O1          0.4218   -1.3578    8.2494 O.2       1 <0>        -0.5037
     20 S2         -0.6549   -0.6366    5.6175 S.3       1 <0>        -0.0212
     21 C14         0.0339   -3.0850   -2.1438 C.2       1 <0>         0.5873
     22 O2          0.0238   -2.7389   -3.3106 O.2       1 <0>        -0.5414
     23 N5          0.0531   -4.3956   -1.8299 N.am      1 <0>        -0.6720
     24 C15         0.0618   -5.4035   -2.8930 C.3       1 <0>         0.0739
     25 H1          0.6424   -5.0346   -3.7386 H         1 <0>         0.0798
     26 C16         0.6915   -6.6947   -2.3665 C.3       1 <0>        -0.0830
     27 C17         2.1637   -6.4452   -2.0332 C.3       1 <0>        -0.1782
     28 C18         2.7839   -7.7170   -1.5146 C.2       1 <0>         0.4916
     29 O3          2.1107   -8.7291   -1.4203 O.co2     1 <0>        -0.6975
     30 O4          3.9588   -7.7338   -1.1893 O.co2     1 <0>        -0.7187
     31 C19        -1.3521   -5.6784   -3.3362 C.2       1 <0>         0.4988
     32 O5         -1.5758   -6.0156   -4.4863 O.co2     1 <0>        -0.6999
     33 O6         -2.2723   -5.5635   -2.5446 O.co2     1 <0>        -0.6974
     34 H2          1.0042    1.8801    0.0026 H         1 <0>         0.0623
     35 H3         -0.5455    1.8639   -0.8728 H         1 <0>         0.0614
     36 H4         -0.5286    1.8543    0.9071 H         1 <0>         0.0591
     37 H5         -0.0057   -0.1918   -2.1424 H         1 <0>         0.1441
     38 H6          0.5583   -0.8395    3.2278 H         1 <0>         0.0863
     39 H7          0.5299    0.8184    2.5807 H         1 <0>         0.0839
     40 H8         -1.9408    0.7067    2.4027 H         1 <0>         0.0856
     41 H9         -1.9125   -0.9512    3.0499 H         1 <0>         0.0852
     42 H10        -0.8434    1.5068    4.5154 H         1 <0>         0.1008
     43 H11        -3.3526    1.4864    4.2647 H         1 <0>         0.1060
     44 H12        -3.3808   -0.1357    5.0040 H         1 <0>         0.0873
     45 H13        -3.2837    2.2533    6.4257 H         1 <0>         0.4019
     46 H14        -1.7493    0.8173   11.7384 H         1 <0>         0.4313
     47 H15        -2.9218    1.8157   11.0667 H         1 <0>         0.4091
     48 H16         0.0611   -4.6714   -0.8999 H         1 <0>         0.3919
     49 H17         0.1648   -7.0155   -1.4677 H         1 <0>         0.0616
     50 H18         0.6178   -7.4715   -3.1276 H         1 <0>         0.0742
     51 H19         2.6904   -6.1243   -2.9320 H         1 <0>         0.0529
     52 H20         2.2374   -5.6684   -1.2721 H         1 <0>         0.0514
     53 H21        -3.2025    1.9041    8.7470 H         1 <0>         0.4105
@<TRIPOS>BOND
     1    1    2 1
     2    1   34 1
     3    1   35 1
     4    1   36 1
     5    2    6 2
     6    2    3 1
     7    3    4 2
     8    3   37 1
     9    4    5 1
    10    4   21 1
    11    5    6 1
    12    6    7 1
    13    7    8 1
    14    7   38 1
    15    7   39 1
    16    8    9 1
    17    8   40 1
    18    8   41 1
    19    9   20 1
    20    9   10 1
    21    9   42 1
    22   10   11 1
    23   10   43 1
    24   10   44 1
    25   11   12 1
    26   11   45 1
    27   12   17 1
    28   12   13 2
    29   13   14 1
    30   13   20 1
    31   14   15 1
    32   14   19 2
    33   15   16 2
    34   16   17 1
    35   16   18 1
    36   17   53 1
    37   18   46 1
    38   18   47 1
    39   21   22 2
    40   21   23 am
    41   23   24 1
    42   23   48 1
    43   24   25 1
    44   24   26 1
    45   24   31 1
    46   26   27 1
    47   26   49 1
    48   26   50 1
    49   27   28 1
    50   27   51 1
    51   27   52 1
    52   28   29 2
    53   28   30 1
    54   31   32 2
    55   31   33 1
@<TRIPOS>MOLECULE
CHEMBL82181
   53    55     0     0     0
SMALL
USER_CHARGES

@<TRIPOS>ATOM
      1 C1         -0.0166    1.3751    0.0096 C.ar      1 <0>        -0.1251
      2 C2          1.1704    2.0863    0.0021 C.ar      1 <0>        -0.1038
      3 C3          2.3828    1.4202   -0.0131 C.ar      1 <0>        -0.0992
      4 C4          2.4156    0.0409   -0.0213 C.ar      1 <0>        -0.0621
      5 C5          1.2221   -0.6824   -0.0138 C.ar      1 <0>        -0.1055
      6 C6          0.0021   -0.0041    0.0020 C.ar      1 <0>        -0.0878
      7 C7          1.2496   -2.1606   -0.0230 C.2       1 <0>         0.5484
      8 O1          2.3134   -2.7485   -0.0371 O.2       1 <0>        -0.5560
      9 N1          0.0952   -2.8561   -0.0157 N.am      1 <0>        -0.6744
     10 C8          0.1225   -4.3208   -0.0248 C.3       1 <0>         0.0725
     11 C9         -1.1811   -4.8515   -0.6247 C.3       1 <0>        -0.0812
     12 C10        -1.2707   -4.4392   -2.0954 C.3       1 <0>        -0.1777
     13 C11        -2.5547   -4.9619   -2.6862 C.2       1 <0>         0.4911
     14 O2         -3.3266   -5.6046   -1.9951 O.co2     1 <0>        -0.6975
     15 O3         -2.8217   -4.7420   -3.8554 O.co2     1 <0>        -0.7198
     16 C12         0.2698   -4.8293    1.3862 C.2       1 <0>         0.4974
     17 O4          0.1623   -4.0599    2.3258 O.co2     1 <0>        -0.6980
     18 O5          0.4964   -6.0101    1.5881 O.co2     1 <0>        -0.7009
     19 C13         3.6706    2.2029   -0.0212 C.3       1 <0>        -0.0754
     20 C14         4.1202    2.4600    1.4185 C.3       1 <0>        -0.0933
     21 C15         5.4276    3.2547    1.4103 C.3       1 <0>        -0.1044
     22 C16         5.9275    3.4518    2.8501 C.3       1 <0>         0.1256
     23 N2          7.2220    4.1252    2.8110 N.pl3     1 <0>        -0.7076
     24 C17         7.4315    5.3229    2.1603 C.2       1 <0>         0.4819
     25 C18         6.5867    5.7989    1.1720 C.2       1 <0>        -0.3938
     26 C19         6.8817    7.0172    0.5439 C.2       1 <0>         0.5750
     27 N3          7.9827    7.6968    0.9275 N.am      1 <0>        -0.6564
     28 C20         8.7770    7.1972    1.9135 C.2       1 <0>         0.6599
     29 N4          8.5068    6.0559    2.5033 N.2       1 <0>        -0.6148
     30 N5          9.8878    7.9038    2.3003 N.pl3     1 <0>        -0.8227
     31 O6          6.1553    7.4554   -0.3352 O.2       1 <0>        -0.5301
     32 S1          5.1433    4.9043    0.6988 S.3       1 <0>        -0.0476
     33 H1         -0.9597    1.9011    0.0260 H         1 <0>         0.1243
     34 H2          1.1503    3.1661    0.0077 H         1 <0>         0.1206
     35 H3          3.3627   -0.4779   -0.0339 H         1 <0>         0.1321
     36 H4         -0.9251   -0.5579    0.0083 H         1 <0>         0.1281
     37 H5         -0.7537   -2.3869   -0.0044 H         1 <0>         0.3902
     38 H6          0.9651   -4.6648   -0.6248 H         1 <0>         0.0782
     39 H7         -1.1991   -5.9388   -0.5505 H         1 <0>         0.0771
     40 H8         -2.0280   -4.4360   -0.0786 H         1 <0>         0.0565
     41 H9         -1.2527   -3.3519   -2.1696 H         1 <0>         0.0507
     42 H10        -0.4238   -4.8547   -2.6415 H         1 <0>         0.0526
     43 H11         4.4383    1.6339   -0.5454 H         1 <0>         0.0750
     44 H12         3.5140    3.1549   -0.5284 H         1 <0>         0.0786
     45 H13         3.3525    3.0291    1.9428 H         1 <0>         0.0796
     46 H14         4.2768    1.5081    1.9257 H         1 <0>         0.0869
     47 H15         6.1793    2.7241    0.8258 H         1 <0>         0.0997
     48 H16         5.2146    4.0627    3.4039 H         1 <0>         0.0831
     49 H17         6.0349    2.4818    3.3355 H         1 <0>         0.1061
     50 H18         7.9719    3.7096    3.2647 H         1 <0>         0.4088
     51 H19        10.0988    8.7482    1.8722 H         1 <0>         0.4145
     52 H20        10.4621    7.5588    3.0018 H         1 <0>         0.4276
     53 H21         8.2076    8.5387    0.5015 H         1 <0>         0.4128
@<TRIPOS>BOND
     1    1    6 ar
     2    1    2 ar
     3    1   33 1
     4    2    3 ar
     5    2   34 1
     6    3    4 ar
     7    3   19 1
     8    4    5 ar
     9    4   35 1
    10    5    6 ar
    11    5    7 1
    12    6   36 1
    13    7    8 2
    14    7    9 am
    15    9   10 1
    16    9   37 1
    17   10   11 1
    18   10   16 1
    19   10   38 1
    20   11   12 1
    21   11   39 1
    22   11   40 1
    23   12   13 1
    24   12   41 1
    25   12   42 1
    26   13   14 2
    27   13   15 1
    28   16   17 2
    29   16   18 1
    30   19   20 1
    31   19   43 1
    32   19   44 1
    33   20   21 1
    34   20   45 1
    35   20   46 1
    36   21   32 1
    37   21   22 1
    38   21   47 1
    39   22   23 1
    40   22   48 1
    41   22   49 1
    42   23   24 1
    43   23   50 1
    44   24   29 1
    45   24   25 2
    46   25   26 1
    47   25   32 1
    48   26   27 am
    49   26   31 2
    50   27   28 1
    51   27   53 1
    52   28   29 2
    53   28   30 1
    54   30   51 1
    55   30   52 1
@<TRIPOS>MOLECULE
CHEMBL82181__1
   53    55     0     0     0
SMALL
USER_CHARGES

@<TRIPOS>ATOM
      1 C1         -0.0166    1.3751    0.0096 C.ar      1 <0>        -0.1246
      2 C2          1.1704    2.0863    0.0021 C.ar      1 <0>        -0.1028
      3 C3          2.3828    1.4202   -0.0131 C.ar      1 <0>        -0.0999
      4 C4          2.4156    0.0409   -0.0213 C.ar      1 <0>        -0.0620
      5 C5          1.2221   -0.6824   -0.0138 C.ar      1 <0>        -0.1073
      6 C6          0.0021   -0.0041    0.0020 C.ar      1 <0>        -0.0870
      7 C7          1.2496   -2.1606   -0.0230 C.2       1 <0>         0.5437
      8 O1          2.3134   -2.7485   -0.0371 O.2       1 <0>        -0.5542
      9 N1          0.0952   -2.8561   -0.0157 N.am      1 <0>        -0.6749
     10 C8          0.1225   -4.3208   -0.0248 C.3       1 <0>         0.0734
     11 C9         -1.1811   -4.8515   -0.6247 C.3       1 <0>        -0.0825
     12 C10        -1.2707   -4.4392   -2.0954 C.3       1 <0>        -0.1774
     13 C11        -2.5547   -4.9619   -2.6862 C.2       1 <0>         0.4912
     14 O2         -3.3266   -5.6046   -1.9951 O.co2     1 <0>        -0.6977
     15 O3         -2.8217   -4.7420   -3.8554 O.co2     1 <0>        -0.7192
     16 C12         0.2698   -4.8293    1.3862 C.2       1 <0>         0.4987
     17 O4         -0.1825   -4.1845    2.3168 O.co2     1 <0>        -0.6988
     18 O5          0.8412   -5.8855    1.5970 O.co2     1 <0>        -0.7012
     19 C13         3.6706    2.2029   -0.0212 C.3       1 <0>        -0.0760
     20 C14         4.1202    2.4600    1.4185 C.3       1 <0>        -0.0934
     21 C15         5.4276    3.2547    1.4103 C.3       1 <0>        -0.1122
     22 C16         5.9269    3.4540    2.8505 C.3       1 <0>         0.1304
     23 N2          7.2132    4.1429    2.8085 N.pl3     1 <0>        -0.7315
     24 C17         7.4106    5.3363    2.1573 C.2       1 <0>         0.4377
     25 C18         6.5831    5.8020    1.1806 C.2       1 <0>        -0.3445
     26 C19         6.8797    7.0303    0.5493 C.2       1 <0>         0.5610
     27 N3          7.9610    7.7282    0.9284 N.2       1 <0>        -0.6252
     28 C20         8.7495    7.2794    1.8813 C.2       1 <0>         0.6604
     29 N4          8.5023    6.1009    2.5087 N.pl3     1 <0>        -0.6490
     30 N5          9.8450    8.0182    2.2488 N.pl3     1 <0>        -0.8239
     31 O6          6.1543    7.4555   -0.3392 O.2       1 <0>        -0.5095
     32 S1          5.1438    4.9045    0.6988 S.3       1 <0>        -0.0299
     33 H1         -0.9597    1.9011    0.0260 H         1 <0>         0.1252
     34 H2          1.1503    3.1661    0.0077 H         1 <0>         0.1213
     35 H3          3.3627   -0.4779   -0.0339 H         1 <0>         0.1321
     36 H4         -0.9251   -0.5579    0.0083 H         1 <0>         0.1290
     37 H5         -0.7537   -2.3869   -0.0044 H         1 <0>         0.3918
     38 H6          0.9651   -4.6648   -0.6248 H         1 <0>         0.0779
     39 H7         -1.1991   -5.9388   -0.5505 H         1 <0>         0.0727
     40 H8         -2.0280   -4.4360   -0.0786 H         1 <0>         0.0604
     41 H9         -1.2527   -3.3519   -2.1696 H         1 <0>         0.0512
     42 H10        -0.4238   -4.8547   -2.6415 H         1 <0>         0.0528
     43 H11         4.4383    1.6339   -0.5454 H         1 <0>         0.0756
     44 H12         3.5140    3.1549   -0.5284 H         1 <0>         0.0795
     45 H13         3.3525    3.0291    1.9428 H         1 <0>         0.0803
     46 H14         4.2768    1.5081    1.9257 H         1 <0>         0.0869
     47 H15         6.1798    2.7240    0.8265 H         1 <0>         0.1018
     48 H16         5.2079    4.0555    3.4068 H         1 <0>         0.0856
     49 H17         6.0470    2.4842    3.3334 H         1 <0>         0.1086
     50 H18         7.9674    3.7372    3.2641 H         1 <0>         0.4030
     51 H19        10.0314    8.8616    1.8075 H         1 <0>         0.4311
     52 H20        10.4333    7.6972    2.9501 H         1 <0>         0.4096
     53 H21         9.0987    5.7947    3.2097 H         1 <0>         0.4113
@<TRIPOS>BOND
     1    1    6 ar
     2    1    2 ar
     3    1   33 1
     4    2    3 ar
     5    2   34 1
     6    3    4 ar
     7    3   19 1
     8    4    5 ar
     9    4   35 1
    10    5    6 ar
    11    5    7 1
    12    6   36 1
    13    7    8 2
    14    7    9 am
    15    9   10 1
    16    9   37 1
    17   10   11 1
    18   10   16 1
    19   10   38 1
    20   11   12 1
    21   11   39 1
    22   11   40 1
    23   12   13 1
    24   12   41 1
    25   12   42 1
    26   13   14 2
    27   13   15 1
    28   16   17 2
    29   16   18 1
    30   19   20 1
    31   19   43 1
    32   19   44 1
    33   20   21 1
    34   20   45 1
    35   20   46 1
    36   21   32 1
    37   21   22 1
    38   21   47 1
    39   22   23 1
    40   22   48 1
    41   22   49 1
    42   23   24 1
    43   23   50 1
    44   24   29 1
    45   24   25 2
    46   25   26 1
    47   25   32 1
    48   26   27 1
    49   26   31 2
    50   27   28 2
    51   28   29 1
    52   28   30 1
    53   29   53 1
    54   30   51 1
    55   30   52 1
@<TRIPOS>MOLECULE
CHEMBL82181__2
   53    55     0     0     0
SMALL
USER_CHARGES

@<TRIPOS>ATOM
      1 C1         -0.0166    1.3751    0.0096 C.ar      1 <0>        -0.1263
      2 C2          1.1704    2.0863    0.0021 C.ar      1 <0>        -0.1066
      3 C3          2.3828    1.4202   -0.0131 C.ar      1 <0>        -0.0992
      4 C4          2.4156    0.0409   -0.0213 C.ar      1 <0>        -0.0600
      5 C5          1.2221   -0.6824   -0.0138 C.ar      1 <0>        -0.1037
      6 C6          0.0021   -0.0041    0.0020 C.ar      1 <0>        -0.0879
      7 C7          1.2496   -2.1606   -0.0230 C.2       1 <0>         0.5472
      8 O1          2.3134   -2.7485   -0.0371 O.2       1 <0>        -0.5525
      9 N1          0.0952   -2.8561   -0.0157 N.am      1 <0>        -0.6749
     10 C8          0.1225   -4.3208   -0.0248 C.3       1 <0>         0.0726
     11 C9         -1.1811   -4.8515   -0.6247 C.3       1 <0>        -0.0810
     12 C10        -1.2707   -4.4392   -2.0954 C.3       1 <0>        -0.1777
     13 C11        -2.5547   -4.9619   -2.6862 C.2       1 <0>         0.4912
     14 O2         -3.3266   -5.6046   -1.9951 O.co2     1 <0>        -0.6977
     15 O3         -2.8217   -4.7420   -3.8554 O.co2     1 <0>        -0.7200
     16 C12         0.2698   -4.8293    1.3862 C.2       1 <0>         0.4975
     17 O4          0.1623   -4.0599    2.3258 O.co2     1 <0>        -0.6982
     18 O5          0.4964   -6.0101    1.5881 O.co2     1 <0>        -0.7009
     19 C13         3.6706    2.2029   -0.0212 C.3       1 <0>        -0.0752
     20 C14         4.1202    2.4600    1.4185 C.3       1 <0>        -0.0938
     21 C15         5.4276    3.2547    1.4103 C.3       1 <0>        -0.1059
     22 C16         5.8472    3.5840    2.8516 C.3       1 <0>         0.1259
     23 N2          7.0407    4.4235    2.8143 N.pl3     1 <0>        -0.7092
     24 C17         8.1938    4.0685    2.1463 C.2       1 <0>         0.4783
     25 C18         8.2172    3.1158    1.1420 C.2       1 <0>        -0.3914
     26 C19         9.4282    2.8269    0.4970 C.2       1 <0>         0.5736
     27 N3         10.5423    3.4849    0.8804 N.am      1 <0>        -0.6560
     28 C20        10.4746    4.4037    1.8823 C.2       1 <0>         0.6591
     29 N4          9.3431    4.6798    2.4879 N.2       1 <0>        -0.6154
     30 N5         11.6174    5.0573    2.2691 N.pl3     1 <0>        -0.8233
     31 O6          9.4738    1.9948   -0.3963 O.2       1 <0>        -0.5253
     32 S1          6.7537    2.2543    0.6691 S.3       1 <0>        -0.0379
     33 H1         -0.9597    1.9011    0.0260 H         1 <0>         0.1235
     34 H2          1.1503    3.1661    0.0077 H         1 <0>         0.1181
     35 H3          3.3627   -0.4779   -0.0339 H         1 <0>         0.1343
     36 H4         -0.9251   -0.5579    0.0083 H         1 <0>         0.1282
     37 H5         -0.7537   -2.3869   -0.0044 H         1 <0>         0.3897
     38 H6          0.9651   -4.6648   -0.6248 H         1 <0>         0.0784
     39 H7         -1.1991   -5.9388   -0.5505 H         1 <0>         0.0770
     40 H8         -2.0280   -4.4360   -0.0786 H         1 <0>         0.0563
     41 H9         -1.2527   -3.3519   -2.1696 H         1 <0>         0.0506
     42 H10        -0.4238   -4.8547   -2.6415 H         1 <0>         0.0529
     43 H11         4.4383    1.6339   -0.5454 H         1 <0>         0.0809
     44 H12         3.5140    3.1549   -0.5284 H         1 <0>         0.0723
     45 H13         3.3525    3.0291    1.9428 H         1 <0>         0.0824
     46 H14         4.2768    1.5081    1.9257 H         1 <0>         0.0835
     47 H15         5.2972    4.1757    0.8421 H         1 <0>         0.0973
     48 H16         5.0405    4.1180    3.3539 H         1 <0>         0.1029
     49 H17         6.0664    2.6609    3.3882 H         1 <0>         0.0843
     50 H18         7.0218    5.2730    3.2822 H         1 <0>         0.4071
     51 H19        12.4599    4.8622    1.8298 H         1 <0>         0.4146
     52 H20        11.5827    5.7144    2.9818 H         1 <0>         0.4269
     53 H21        11.3890    3.3033    0.4434 H         1 <0>         0.4132
@<TRIPOS>BOND
     1    1    6 ar
     2    1    2 ar
     3    1   33 1
     4    2    3 ar
     5    2   34 1
     6    3    4 ar
     7    3   19 1
     8    4    5 ar
     9    4   35 1
    10    5    6 ar
    11    5    7 1
    12    6   36 1
    13    7    8 2
    14    7    9 am
    15    9   10 1
    16    9   37 1
    17   10   11 1
    18   10   16 1
    19   10   38 1
    20   11   12 1
    21   11   39 1
    22   11   40 1
    23   12   13 1
    24   12   41 1
    25   12   42 1
    26   13   14 2
    27   13   15 1
    28   16   17 2
    29   16   18 1
    30   19   20 1
    31   19   43 1
    32   19   44 1
    33   20   21 1
    34   20   45 1
    35   20   46 1
    36   21   32 1
    37   21   22 1
    38   21   47 1
    39   22   23 1
    40   22   48 1
    41   22   49 1
    42   23   24 1
    43   23   50 1
    44   24   29 1
    45   24   25 2
    46   25   26 1
    47   25   32 1
    48   26   27 am
    49   26   31 2
    50   27   28 1
    51   27   53 1
    52   28   29 2
    53   28   30 1
    54   30   51 1
    55   30   52 1
@<TRIPOS>MOLECULE
CHEMBL82181__3
   53    55     0     0     0
SMALL
USER_CHARGES

@<TRIPOS>ATOM
      1 C1         -0.0166    1.3751    0.0096 C.ar      1 <0>        -0.1262
      2 C2          1.1704    2.0863    0.0021 C.ar      1 <0>        -0.1061
      3 C3          2.3828    1.4202   -0.0131 C.ar      1 <0>        -0.0998
      4 C4          2.4156    0.0409   -0.0213 C.ar      1 <0>        -0.0597
      5 C5          1.2221   -0.6824   -0.0138 C.ar      1 <0>        -0.1048
      6 C6          0.0021   -0.0041    0.0020 C.ar      1 <0>        -0.0872
      7 C7          1.2496   -2.1606   -0.0230 C.2       1 <0>         0.5420
      8 O1          2.3134   -2.7485   -0.0371 O.2       1 <0>        -0.5496
      9 N1          0.0952   -2.8561   -0.0157 N.am      1 <0>        -0.6754
     10 C8          0.1225   -4.3208   -0.0248 C.3       1 <0>         0.0734
     11 C9         -1.1811   -4.8515   -0.6247 C.3       1 <0>        -0.0822
     12 C10        -1.2707   -4.4392   -2.0954 C.3       1 <0>        -0.1774
     13 C11        -2.5547   -4.9619   -2.6862 C.2       1 <0>         0.4913
     14 O2         -3.3266   -5.6046   -1.9951 O.co2     1 <0>        -0.6979
     15 O3         -2.8217   -4.7420   -3.8554 O.co2     1 <0>        -0.7195
     16 C12         0.2698   -4.8293    1.3862 C.2       1 <0>         0.4988
     17 O4         -0.1825   -4.1845    2.3168 O.co2     1 <0>        -0.6995
     18 O5          0.8412   -5.8855    1.5970 O.co2     1 <0>        -0.7005
     19 C13         3.6706    2.2029   -0.0212 C.3       1 <0>        -0.0759
     20 C14         4.1202    2.4600    1.4185 C.3       1 <0>        -0.0939
     21 C15         5.4276    3.2547    1.4103 C.3       1 <0>        -0.1139
     22 C16         5.8488    3.5824    2.8519 C.3       1 <0>         0.1307
     23 N2          7.0524    4.4076    2.8115 N.pl3     1 <0>        -0.7326
     24 C17         8.1960    4.0440    2.1429 C.2       1 <0>         0.4330
     25 C18         8.2185    3.1110    1.1505 C.2       1 <0>        -0.3414
     26 C19         9.4390    2.8190    0.5021 C.2       1 <0>         0.5593
     27 N3         10.5602    3.4511    0.8805 N.2       1 <0>        -0.6238
     28 C20        10.5346    4.3420    1.8484 C.2       1 <0>         0.6593
     29 N4          9.3810    4.6551    2.4925 N.pl3     1 <0>        -0.6490
     30 N5         11.6985    4.9681    2.2147 N.pl3     1 <0>        -0.8244
     31 O6          9.4735    1.9933   -0.3998 O.2       1 <0>        -0.5043
     32 S1          6.7541    2.2547    0.6692 S.3       1 <0>        -0.0197
     33 H1         -0.9597    1.9011    0.0260 H         1 <0>         0.1240
     34 H2          1.1503    3.1661    0.0077 H         1 <0>         0.1180
     35 H3          3.3627   -0.4779   -0.0339 H         1 <0>         0.1350
     36 H4         -0.9251   -0.5579    0.0083 H         1 <0>         0.1290
     37 H5         -0.7537   -2.3869   -0.0044 H         1 <0>         0.3911
     38 H6          0.9651   -4.6648   -0.6248 H         1 <0>         0.0783
     39 H7         -1.1991   -5.9388   -0.5505 H         1 <0>         0.0727
     40 H8         -2.0280   -4.4360   -0.0786 H         1 <0>         0.0599
     41 H9         -1.2527   -3.3519   -2.1696 H         1 <0>         0.0510
     42 H10        -0.4238   -4.8547   -2.6415 H         1 <0>         0.0532
     43 H11         4.4383    1.6339   -0.5454 H         1 <0>         0.0817
     44 H12         3.5140    3.1549   -0.5284 H         1 <0>         0.0729
     45 H13         3.3525    3.0291    1.9428 H         1 <0>         0.0827
     46 H14         4.2768    1.5081    1.9257 H         1 <0>         0.0841
     47 H15         5.2973    4.1761    0.8428 H         1 <0>         0.0995
     48 H16         5.0482    4.1277    3.3518 H         1 <0>         0.1055
     49 H17         6.0570    2.6583    3.3911 H         1 <0>         0.0868
     50 H18         7.0440    5.2566    3.2806 H         1 <0>         0.4014
     51 H19        12.5286    4.7525    1.7615 H         1 <0>         0.4311
     52 H20        11.6916    5.6266    2.9269 H         1 <0>         0.4090
     53 H21         9.3909    5.3139    3.2043 H         1 <0>         0.4102
@<TRIPOS>BOND
     1    1    6 ar
     2    1    2 ar
     3    1   33 1
     4    2    3 ar
     5    2   34 1
     6    3    4 ar
     7    3   19 1
     8    4    5 ar
     9    4   35 1
    10    5    6 ar
    11    5    7 1
    12    6   36 1
    13    7    8 2
    14    7    9 am
    15    9   10 1
    16    9   37 1
    17   10   11 1
    18   10   16 1
    19   10   38 1
    20   11   12 1
    21   11   39 1
    22   11   40 1
    23   12   13 1
    24   12   41 1
    25   12   42 1
    26   13   14 2
    27   13   15 1
    28   16   17 2
    29   16   18 1
    30   19   20 1
    31   19   43 1
    32   19   44 1
    33   20   21 1
    34   20   45 1
    35   20   46 1
    36   21   32 1
    37   21   22 1
    38   21   47 1
    39   22   23 1
    40   22   48 1
    41   22   49 1
    42   23   24 1
    43   23   50 1
    44   24   29 1
    45   24   25 2
    46   25   26 1
    47   25   32 1
    48   26   27 1
    49   26   31 2
    50   27   28 2
    51   28   29 1
    52   28   30 1
    53   29   53 1
    54   30   51 1
    55   30   52 1
@<TRIPOS>MOLECULE
CHEMBL82181__4
   53    55     0     0     0
SMALL
USER_CHARGES

@<TRIPOS>ATOM
      1 C1         -0.0166    1.3751    0.0096 C.ar      1 <0>        -0.1249
      2 C2          1.1704    2.0863    0.0021 C.ar      1 <0>        -0.1031
      3 C3          2.3828    1.4202   -0.0131 C.ar      1 <0>        -0.0991
      4 C4          2.4156    0.0409   -0.0213 C.ar      1 <0>        -0.0619
      5 C5          1.2221   -0.6824   -0.0138 C.ar      1 <0>        -0.1072
      6 C6          0.0021   -0.0041    0.0020 C.ar      1 <0>        -0.0874
      7 C7          1.2496   -2.1606   -0.0230 C.2       1 <0>         0.5436
      8 O1          2.3134   -2.7485   -0.0371 O.2       1 <0>        -0.5537
      9 N1          0.0952   -2.8561   -0.0157 N.am      1 <0>        -0.6751
     10 C8          0.1225   -4.3208   -0.0248 C.3       1 <0>         0.0736
     11 C9         -1.1689   -4.8589    0.5945 C.3       1 <0>        -0.0826
     12 C10        -1.2292   -4.4644    2.0715 C.3       1 <0>        -0.1770
     13 C11        -2.5013   -4.9943    2.6815 C.2       1 <0>         0.4911
     14 O2         -3.2869   -5.6287    1.9981 O.co2     1 <0>        -0.6975
     15 O3         -2.7449   -4.7886    3.8583 O.co2     1 <0>        -0.7197
     16 C12         0.2416   -4.8122   -1.4445 C.2       1 <0>         0.4982
     17 O4          0.8086   -5.8657   -1.6794 O.co2     1 <0>        -0.7012
     18 O5         -0.2290   -4.1563   -2.3581 O.co2     1 <0>        -0.6982
     19 C13         3.6706    2.2029   -0.0212 C.3       1 <0>        -0.0760
     20 C14         4.1202    2.4600    1.4185 C.3       1 <0>        -0.0926
     21 C15         5.4276    3.2547    1.4103 C.3       1 <0>        -0.1048
     22 C16         5.9275    3.4518    2.8501 C.3       1 <0>         0.1259
     23 N2          7.2220    4.1252    2.8110 N.pl3     1 <0>        -0.7078
     24 C17         7.4315    5.3229    2.1603 C.2       1 <0>         0.4820
     25 C18         6.5867    5.7989    1.1720 C.2       1 <0>        -0.3937
     26 C19         6.8817    7.0172    0.5439 C.2       1 <0>         0.5750
     27 N3          7.9827    7.6968    0.9275 N.am      1 <0>        -0.6564
     28 C20         8.7770    7.1972    1.9135 C.2       1 <0>         0.6600
     29 N4          8.5068    6.0559    2.5033 N.2       1 <0>        -0.6149
     30 N5          9.8878    7.9038    2.3003 N.pl3     1 <0>        -0.8227
     31 O6          6.1553    7.4554   -0.3352 O.2       1 <0>        -0.5300
     32 S1          5.1433    4.9043    0.6988 S.3       1 <0>        -0.0473
     33 H1         -0.9597    1.9011    0.0260 H         1 <0>         0.1247
     34 H2          1.1503    3.1661    0.0077 H         1 <0>         0.1209
     35 H3          3.3627   -0.4779   -0.0339 H         1 <0>         0.1324
     36 H4         -0.9251   -0.5579    0.0083 H         1 <0>         0.1287
     37 H5         -0.7537   -2.3869   -0.0044 H         1 <0>         0.3917
     38 H6          0.9768   -4.6719    0.5541 H         1 <0>         0.0778
     39 H7         -2.0265   -4.4369    0.0704 H         1 <0>         0.0603
     40 H8         -1.1885   -5.9452    0.5075 H         1 <0>         0.0727
     41 H9         -0.3717   -4.8863    2.5956 H         1 <0>         0.0526
     42 H10        -1.2097   -3.3780    2.1585 H         1 <0>         0.0511
     43 H11         4.4383    1.6339   -0.5454 H         1 <0>         0.0754
     44 H12         3.5140    3.1549   -0.5284 H         1 <0>         0.0789
     45 H13         3.3525    3.0291    1.9428 H         1 <0>         0.0797
     46 H14         4.2768    1.5081    1.9257 H         1 <0>         0.0862
     47 H15         6.1793    2.7241    0.8258 H         1 <0>         0.0998
     48 H16         5.2146    4.0627    3.4039 H         1 <0>         0.0831
     49 H17         6.0349    2.4818    3.3355 H         1 <0>         0.1057
     50 H18         7.9719    3.7096    3.2647 H         1 <0>         0.4088
     51 H19        10.0988    8.7482    1.8722 H         1 <0>         0.4146
     52 H20        10.4621    7.5588    3.0018 H         1 <0>         0.4276
     53 H21         8.2076    8.5387    0.5015 H         1 <0>         0.4129
@<TRIPOS>BOND
     1    1    6 ar
     2    1    2 ar
     3    1   33 1
     4    2    3 ar
     5    2   34 1
     6    3    4 ar
     7    3   19 1
     8    4    5 ar
     9    4   35 1
    10    5    6 ar
    11    5    7 1
    12    6   36 1
    13    7    8 2
    14    7    9 am
    15    9   10 1
    16    9   37 1
    17   10   11 1
    18   10   16 1
    19   10   38 1
    20   11   12 1
    21   11   39 1
    22   11   40 1
    23   12   13 1
    24   12   41 1
    25   12   42 1
    26   13   14 2
    27   13   15 1
    28   16   17 2
    29   16   18 1
    30   19   20 1
    31   19   43 1
    32   19   44 1
    33   20   21 1
    34   20   45 1
    35   20   46 1
    36   21   32 1
    37   21   22 1
    38   21   47 1
    39   22   23 1
    40   22   48 1
    41   22   49 1
    42   23   24 1
    43   23   50 1
    44   24   29 1
    45   24   25 2
    46   25   26 1
    47   25   32 1
    48   26   27 am
    49   26   31 2
    50   27   28 1
    51   27   53 1
    52   28   29 2
    53   28   30 1
    54   30   51 1
    55   30   52 1
@<TRIPOS>MOLECULE
CHEMBL82181__5
   53    55     0     0     0
SMALL
USER_CHARGES

@<TRIPOS>ATOM
      1 C1         -0.0166    1.3751    0.0096 C.ar      1 <0>        -0.1248
      2 C2          1.1704    2.0863    0.0021 C.ar      1 <0>        -0.1038
      3 C3          2.3828    1.4202   -0.0131 C.ar      1 <0>        -0.0998
      4 C4          2.4156    0.0409   -0.0213 C.ar      1 <0>        -0.0622
      5 C5          1.2221   -0.6824   -0.0138 C.ar      1 <0>        -0.1049
      6 C6          0.0021   -0.0041    0.0020 C.ar      1 <0>        -0.0879
      7 C7          1.2496   -2.1606   -0.0230 C.2       1 <0>         0.5506
      8 O1          2.3134   -2.7485   -0.0371 O.2       1 <0>        -0.5556
      9 N1          0.0952   -2.8561   -0.0157 N.am      1 <0>        -0.6754
     10 C8          0.1225   -4.3208   -0.0248 C.3       1 <0>         0.0726
     11 C9         -1.1689   -4.8589    0.5945 C.3       1 <0>        -0.0806
     12 C10        -1.2292   -4.4644    2.0715 C.3       1 <0>        -0.1776
     13 C11        -2.5013   -4.9943    2.6815 C.2       1 <0>         0.4908
     14 O2         -3.2869   -5.6287    1.9981 O.co2     1 <0>        -0.6967
     15 O3         -2.7449   -4.7886    3.8583 O.co2     1 <0>        -0.7204
     16 C12         0.2416   -4.8122   -1.4445 C.2       1 <0>         0.4954
     17 O4          0.2984   -4.0130   -2.3634 O.co2     1 <0>        -0.6963
     18 O5          0.2812   -6.0090   -1.6740 O.co2     1 <0>        -0.7000
     19 C13         3.6706    2.2029   -0.0212 C.3       1 <0>        -0.0764
     20 C14         4.1202    2.4600    1.4185 C.3       1 <0>        -0.0927
     21 C15         5.4276    3.2547    1.4103 C.3       1 <0>        -0.1126
     22 C16         5.9269    3.4540    2.8505 C.3       1 <0>         0.1307
     23 N2          7.2132    4.1429    2.8085 N.pl3     1 <0>        -0.7316
     24 C17         7.4106    5.3363    2.1573 C.2       1 <0>         0.4374
     25 C18         6.5831    5.8020    1.1806 C.2       1 <0>        -0.3442
     26 C19         6.8797    7.0303    0.5493 C.2       1 <0>         0.5610
     27 N3          7.9610    7.7282    0.9284 N.2       1 <0>        -0.6252
     28 C20         8.7495    7.2794    1.8813 C.2       1 <0>         0.6604
     29 N4          8.5023    6.1009    2.5087 N.pl3     1 <0>        -0.6490
     30 N5          9.8450    8.0182    2.2488 N.pl3     1 <0>        -0.8239
     31 O6          6.1543    7.4555   -0.3392 O.2       1 <0>        -0.5093
     32 S1          5.1438    4.9045    0.6988 S.3       1 <0>        -0.0294
     33 H1         -0.9597    1.9011    0.0260 H         1 <0>         0.1246
     34 H2          1.1503    3.1661    0.0077 H         1 <0>         0.1209
     35 H3          3.3627   -0.4779   -0.0339 H         1 <0>         0.1318
     36 H4         -0.9251   -0.5579    0.0083 H         1 <0>         0.1280
     37 H5         -0.7537   -2.3869   -0.0044 H         1 <0>         0.3896
     38 H6          0.9768   -4.6719    0.5541 H         1 <0>         0.0778
     39 H7         -2.0265   -4.4369    0.0704 H         1 <0>         0.0552
     40 H8         -1.1885   -5.9452    0.5075 H         1 <0>         0.0793
     41 H9         -0.3717   -4.8863    2.5956 H         1 <0>         0.0519
     42 H10        -1.2097   -3.3780    2.1585 H         1 <0>         0.0500
     43 H11         4.4383    1.6339   -0.5454 H         1 <0>         0.0758
     44 H12         3.5140    3.1549   -0.5284 H         1 <0>         0.0793
     45 H13         3.3525    3.0291    1.9428 H         1 <0>         0.0803
     46 H14         4.2768    1.5081    1.9257 H         1 <0>         0.0863
     47 H15         6.1798    2.7240    0.8265 H         1 <0>         0.1019
     48 H16         5.2079    4.0555    3.4068 H         1 <0>         0.0856
     49 H17         6.0470    2.4842    3.3334 H         1 <0>         0.1082
     50 H18         7.9674    3.7372    3.2641 H         1 <0>         0.4029
     51 H19        10.0314    8.8616    1.8075 H         1 <0>         0.4311
     52 H20        10.4333    7.6972    2.9501 H         1 <0>         0.4096
     53 H21         9.0987    5.7947    3.2097 H         1 <0>         0.4112
@<TRIPOS>BOND
     1    1    6 ar
     2    1    2 ar
     3    1   33 1
     4    2    3 ar
     5    2   34 1
     6    3    4 ar
     7    3   19 1
     8    4    5 ar
     9    4   35 1
    10    5    6 ar
    11    5    7 1
    12    6   36 1
    13    7    8 2
    14    7    9 am
    15    9   10 1
    16    9   37 1
    17   10   11 1
    18   10   16 1
    19   10   38 1
    20   11   12 1
    21   11   39 1
    22   11   40 1
    23   12   13 1
    24   12   41 1
    25   12   42 1
    26   13   14 2
    27   13   15 1
    28   16   17 2
    29   16   18 1
    30   19   20 1
    31   19   43 1
    32   19   44 1
    33   20   21 1
    34   20   45 1
    35   20   46 1
    36   21   32 1
    37   21   22 1
    38   21   47 1
    39   22   23 1
    40   22   48 1
    41   22   49 1
    42   23   24 1
    43   23   50 1
    44   24   29 1
    45   24   25 2
    46   25   26 1
    47   25   32 1
    48   26   27 1
    49   26   31 2
    50   27   28 2
    51   28   29 1
    52   28   30 1
    53   29   53 1
    54   30   51 1
    55   30   52 1
@<TRIPOS>MOLECULE
CHEMBL82181__6
   53    55     0     0     0
SMALL
USER_CHARGES

@<TRIPOS>ATOM
      1 C1         -0.0166    1.3751    0.0096 C.ar      1 <0>        -0.1262
      2 C2          1.1704    2.0863    0.0021 C.ar      1 <0>        -0.1060
      3 C3          2.3828    1.4202   -0.0131 C.ar      1 <0>        -0.0990
      4 C4          2.4156    0.0409   -0.0213 C.ar      1 <0>        -0.0598
      5 C5          1.2221   -0.6824   -0.0138 C.ar      1 <0>        -0.1054
      6 C6          0.0021   -0.0041    0.0020 C.ar      1 <0>        -0.0876
      7 C7          1.2496   -2.1606   -0.0230 C.2       1 <0>         0.5424
      8 O1          2.3134   -2.7485   -0.0371 O.2       1 <0>        -0.5502
      9 N1          0.0952   -2.8561   -0.0157 N.am      1 <0>        -0.6755
     10 C8          0.1225   -4.3208   -0.0248 C.3       1 <0>         0.0736
     11 C9         -1.1689   -4.8589    0.5945 C.3       1 <0>        -0.0823
     12 C10        -1.2292   -4.4644    2.0715 C.3       1 <0>        -0.1771
     13 C11        -2.5013   -4.9943    2.6815 C.2       1 <0>         0.4912
     14 O2         -3.2869   -5.6287    1.9981 O.co2     1 <0>        -0.6976
     15 O3         -2.7449   -4.7886    3.8583 O.co2     1 <0>        -0.7199
     16 C12         0.2416   -4.8122   -1.4445 C.2       1 <0>         0.4984
     17 O4          0.8086   -5.8657   -1.6794 O.co2     1 <0>        -0.7009
     18 O5         -0.2290   -4.1563   -2.3581 O.co2     1 <0>        -0.6987
     19 C13         3.6706    2.2029   -0.0212 C.3       1 <0>        -0.0758
     20 C14         4.1202    2.4600    1.4185 C.3       1 <0>        -0.0931
     21 C15         5.4276    3.2547    1.4103 C.3       1 <0>        -0.1065
     22 C16         5.8472    3.5840    2.8516 C.3       1 <0>         0.1262
     23 N2          7.0407    4.4235    2.8143 N.pl3     1 <0>        -0.7094
     24 C17         8.1938    4.0685    2.1463 C.2       1 <0>         0.4783
     25 C18         8.2172    3.1158    1.1420 C.2       1 <0>        -0.3915
     26 C19         9.4282    2.8269    0.4970 C.2       1 <0>         0.5735
     27 N3         10.5423    3.4849    0.8804 N.am      1 <0>        -0.6560
     28 C20        10.4746    4.4037    1.8823 C.2       1 <0>         0.6593
     29 N4          9.3431    4.6798    2.4879 N.2       1 <0>        -0.6155
     30 N5         11.6174    5.0573    2.2691 N.pl3     1 <0>        -0.8232
     31 O6          9.4738    1.9948   -0.3963 O.2       1 <0>        -0.5248
     32 S1          6.7537    2.2543    0.6691 S.3       1 <0>        -0.0376
     33 H1         -0.9597    1.9011    0.0260 H         1 <0>         0.1239
     34 H2          1.1503    3.1661    0.0077 H         1 <0>         0.1183
     35 H3          3.3627   -0.4779   -0.0339 H         1 <0>         0.1346
     36 H4         -0.9251   -0.5579    0.0083 H         1 <0>         0.1288
     37 H5         -0.7537   -2.3869   -0.0044 H         1 <0>         0.3912
     38 H6          0.9768   -4.6719    0.5541 H         1 <0>         0.0780
     39 H7         -2.0265   -4.4369    0.0704 H         1 <0>         0.0600
     40 H8         -1.1885   -5.9452    0.5075 H         1 <0>         0.0726
     41 H9         -0.3717   -4.8863    2.5956 H         1 <0>         0.0528
     42 H10        -1.2097   -3.3780    2.1585 H         1 <0>         0.0510
     43 H11         4.4383    1.6339   -0.5454 H         1 <0>         0.0812
     44 H12         3.5140    3.1549   -0.5284 H         1 <0>         0.0725
     45 H13         3.3525    3.0291    1.9428 H         1 <0>         0.0824
     46 H14         4.2768    1.5081    1.9257 H         1 <0>         0.0828
     47 H15         5.2972    4.1757    0.8421 H         1 <0>         0.0974
     48 H16         5.0405    4.1180    3.3539 H         1 <0>         0.1029
     49 H17         6.0664    2.6609    3.3882 H         1 <0>         0.0839
     50 H18         7.0218    5.2730    3.2822 H         1 <0>         0.4072
     51 H19        12.4599    4.8622    1.8298 H         1 <0>         0.4146
     52 H20        11.5827    5.7144    2.9818 H         1 <0>         0.4270
     53 H21        11.3890    3.3033    0.4434 H         1 <0>         0.4132
@<TRIPOS>BOND
     1    1    6 ar
     2    1    2 ar
     3    1   33 1
     4    2    3 ar
     5    2   34 1
     6    3    4 ar
     7    3   19 1
     8    4    5 ar
     9    4   35 1
    10    5    6 ar
    11    5    7 1
    12    6   36 1
    13    7    8 2
    14    7    9 am
    15    9   10 1
    16    9   37 1
    17   10   11 1
    18   10   16 1
    19   10   38 1
    20   11   12 1
    21   11   39 1
    22   11   40 1
    23   12   13 1
    24   12   41 1
    25   12   42 1
    26   13   14 2
    27   13   15 1
    28   16   17 2
    29   16   18 1
    30   19   20 1
    31   19   43 1
    32   19   44 1
    33   20   21 1
    34   20   45 1
    35   20   46 1
    36   21   32 1
    37   21   22 1
    38   21   47 1
    39   22   23 1
    40   22   48 1
    41   22   49 1
    42   23   24 1
    43   23   50 1
    44   24   29 1
    45   24   25 2
    46   25   26 1
    47   25   32 1
    48   26   27 am
    49   26   31 2
    50   27   28 1
    51   27   53 1
    52   28   29 2
    53   28   30 1
    54   30   51 1
    55   30   52 1
@<TRIPOS>MOLECULE
CHEMBL82181__7
   53    55     0     0     0
SMALL
USER_CHARGES

@<TRIPOS>ATOM
      1 C1         -0.0166    1.3751    0.0096 C.ar      1 <0>        -0.1264
      2 C2          1.1704    2.0863    0.0021 C.ar      1 <0>        -0.1071
      3 C3          2.3828    1.4202   -0.0131 C.ar      1 <0>        -0.0997
      4 C4          2.4156    0.0409   -0.0213 C.ar      1 <0>        -0.0598
      5 C5          1.2221   -0.6824   -0.0138 C.ar      1 <0>        -0.1025
      6 C6          0.0021   -0.0041    0.0020 C.ar      1 <0>        -0.0881
      7 C7          1.2496   -2.1606   -0.0230 C.2       1 <0>         0.5490
      8 O1          2.3134   -2.7485   -0.0371 O.2       1 <0>        -0.5511
      9 N1          0.0952   -2.8561   -0.0157 N.am      1 <0>        -0.6759
     10 C8          0.1225   -4.3208   -0.0248 C.3       1 <0>         0.0725
     11 C9         -1.1689   -4.8589    0.5945 C.3       1 <0>        -0.0803
     12 C10        -1.2292   -4.4644    2.0715 C.3       1 <0>        -0.1777
     13 C11        -2.5013   -4.9943    2.6815 C.2       1 <0>         0.4910
     14 O2         -3.2869   -5.6287    1.9981 O.co2     1 <0>        -0.6970
     15 O3         -2.7449   -4.7886    3.8583 O.co2     1 <0>        -0.7207
     16 C12         0.2416   -4.8122   -1.4445 C.2       1 <0>         0.4956
     17 O4          0.2984   -4.0130   -2.3634 O.co2     1 <0>        -0.6965
     18 O5          0.2812   -6.0090   -1.6740 O.co2     1 <0>        -0.6999
     19 C13         3.6706    2.2029   -0.0212 C.3       1 <0>        -0.0762
     20 C14         4.1202    2.4600    1.4185 C.3       1 <0>        -0.0931
     21 C15         5.4276    3.2547    1.4103 C.3       1 <0>        -0.1143
     22 C16         5.8488    3.5824    2.8519 C.3       1 <0>         0.1310
     23 N2          7.0524    4.4076    2.8115 N.pl3     1 <0>        -0.7327
     24 C17         8.1960    4.0440    2.1429 C.2       1 <0>         0.4329
     25 C18         8.2185    3.1110    1.1505 C.2       1 <0>        -0.3415
     26 C19         9.4390    2.8190    0.5021 C.2       1 <0>         0.5590
     27 N3         10.5602    3.4511    0.8805 N.2       1 <0>        -0.6238
     28 C20        10.5346    4.3420    1.8484 C.2       1 <0>         0.6593
     29 N4          9.3810    4.6551    2.4925 N.pl3     1 <0>        -0.6490
     30 N5         11.6985    4.9681    2.2147 N.pl3     1 <0>        -0.8244
     31 O6          9.4735    1.9933   -0.3998 O.2       1 <0>        -0.5039
     32 S1          6.7541    2.2547    0.6692 S.3       1 <0>        -0.0193
     33 H1         -0.9597    1.9011    0.0260 H         1 <0>         0.1234
     34 H2          1.1503    3.1661    0.0077 H         1 <0>         0.1176
     35 H3          3.3627   -0.4779   -0.0339 H         1 <0>         0.1347
     36 H4         -0.9251   -0.5579    0.0083 H         1 <0>         0.1280
     37 H5         -0.7537   -2.3869   -0.0044 H         1 <0>         0.3888
     38 H6          0.9768   -4.6719    0.5541 H         1 <0>         0.0782
     39 H7         -2.0265   -4.4369    0.0704 H         1 <0>         0.0548
     40 H8         -1.1885   -5.9452    0.5075 H         1 <0>         0.0793
     41 H9         -0.3717   -4.8863    2.5956 H         1 <0>         0.0524
     42 H10        -1.2097   -3.3780    2.1585 H         1 <0>         0.0498
     43 H11         4.4383    1.6339   -0.5454 H         1 <0>         0.0818
     44 H12         3.5140    3.1549   -0.5284 H         1 <0>         0.0728
     45 H13         3.3525    3.0291    1.9428 H         1 <0>         0.0826
     46 H14         4.2768    1.5081    1.9257 H         1 <0>         0.0834
     47 H15         5.2973    4.1761    0.8428 H         1 <0>         0.0995
     48 H16         5.0482    4.1277    3.3518 H         1 <0>         0.1055
     49 H17         6.0570    2.6583    3.3911 H         1 <0>         0.0865
     50 H18         7.0440    5.2566    3.2806 H         1 <0>         0.4014
     51 H19        12.5286    4.7525    1.7615 H         1 <0>         0.4311
     52 H20        11.6916    5.6266    2.9269 H         1 <0>         0.4090
     53 H21         9.3909    5.3139    3.2043 H         1 <0>         0.4102
@<TRIPOS>BOND
     1    1    6 ar
     2    1    2 ar
     3    1   33 1
     4    2    3 ar
     5    2   34 1
     6    3    4 ar
     7    3   19 1
     8    4    5 ar
     9    4   35 1
    10    5    6 ar
    11    5    7 1
    12    6   36 1
    13    7    8 2
    14    7    9 am
    15    9   10 1
    16    9   37 1
    17   10   11 1
    18   10   16 1
    19   10   38 1
    20   11   12 1
    21   11   39 1
    22   11   40 1
    23   12   13 1
    24   12   41 1
    25   12   42 1
    26   13   14 2
    27   13   15 1
    28   16   17 2
    29   16   18 1
    30   19   20 1
    31   19   43 1
    32   19   44 1
    33   20   21 1
    34   20   45 1
    35   20   46 1
    36   21   32 1
    37   21   22 1
    38   21   47 1
    39   22   23 1
    40   22   48 1
    41   22   49 1
    42   23   24 1
    43   23   50 1
    44   24   29 1
    45   24   25 2
    46   25   26 1
    47   25   32 1
    48   26   27 1
    49   26   31 2
    50   27   28 2
    51   28   29 1
    52   28   30 1
    53   29   53 1
    54   30   51 1
    55   30   52 1
@<TRIPOS>MOLECULE
CHEMBL294768
   49    50     0     0     0
SMALL
USER_CHARGES

@<TRIPOS>ATOM
      1 C1         -0.0156    1.3005    0.0092 C.2       1 <0>        -0.0908
      2 C2          1.1809    1.9915    0.0015 C.2       1 <0>         0.0481
      3 S1          2.3144    0.7465   -0.0160 S.3       1 <0>         0.1870
      4 C3          1.1748   -0.6270   -0.0125 C.2       1 <0>        -0.0178
      5 N1          0.0021   -0.0041    0.0020 N.2       1 <0>        -0.4034
      6 C4          1.4589   -2.0661   -0.0234 C.2       1 <0>         0.6029
      7 O1          2.6107   -2.4589   -0.0369 O.2       1 <0>        -0.5497
      8 N2          0.4444   -2.9533   -0.0184 N.am      1 <0>        -0.6545
      9 C5          0.7281   -4.3905   -0.0292 C.3       1 <0>         0.0741
     10 H1          1.6301   -4.5872    0.5503 H         1 <0>         0.0806
     11 C6         -0.4496   -5.1476    0.5878 C.3       1 <0>        -0.0821
     12 C7         -0.5797   -4.7718    2.0652 C.3       1 <0>        -0.1783
     13 C8         -1.7398   -5.5174    2.6729 C.2       1 <0>         0.4920
     14 O2         -2.4012   -6.2788    1.9879 O.co2     1 <0>        -0.6980
     15 O3         -2.0169   -5.3593    3.8497 O.co2     1 <0>        -0.7207
     16 C9          0.9330   -4.8514   -1.4493 C.2       1 <0>         0.4986
     17 O4          1.6762   -5.7889   -1.6848 O.co2     1 <0>        -0.7007
     18 O5          0.3556   -4.2869   -2.3627 O.co2     1 <0>        -0.6958
     19 N3          1.3940    3.3615    0.0064 N.pl3     1 <0>        -0.6879
     20 C10         2.7602    3.8903   -0.0037 C.3       1 <0>         0.1172
     21 C11         2.7152    5.4197    0.0044 C.3       1 <0>        -0.1218
     22 C12         4.1420    5.9719   -0.0061 C.3       1 <0>        -0.0231
     23 C13         4.0976    7.4783    0.0019 C.2       1 <0>        -0.4023
     24 C14         4.1978    8.1823    1.1934 C.2       1 <0>         0.4920
     25 N4          4.1567    9.5198    1.1794 N.2       1 <0>        -0.6256
     26 C15         4.0225   10.1854    0.0518 C.2       1 <0>         0.6655
     27 N5          3.9198    9.5415   -1.1428 N.am      1 <0>        -0.6618
     28 C16         3.9606    8.1936   -1.1919 C.2       1 <0>         0.5566
     29 O6          3.8744    7.6083   -2.2599 O.2       1 <0>        -0.5445
     30 N6          3.9849   11.5539    0.0813 N.pl3     1 <0>        -0.8214
     31 N7          4.3387    7.5058    2.3883 N.pl3     1 <0>        -0.8272
     32 H2         -0.9545    1.8341    0.0255 H         1 <0>         0.1581
     33 H3         -0.4736   -2.6403   -0.0076 H         1 <0>         0.4024
     34 H4         -1.3673   -4.8818    0.0631 H         1 <0>         0.0618
     35 H5         -0.2783   -6.2204    0.4995 H         1 <0>         0.0739
     36 H6          0.3380   -5.0376    2.5899 H         1 <0>         0.0529
     37 H7         -0.7510   -3.6990    2.1535 H         1 <0>         0.0532
     38 H8          0.6386    3.9698    0.0166 H         1 <0>         0.4078
     39 H9          3.2928    3.5378    0.8795 H         1 <0>         0.0651
     40 H10         3.2762    3.5468   -0.9003 H         1 <0>         0.0682
     41 H11         2.1826    5.7722   -0.8788 H         1 <0>         0.0728
     42 H12         2.1993    5.7632    0.9010 H         1 <0>         0.0643
     43 H13         4.6746    5.6194    0.8771 H         1 <0>         0.0607
     44 H14         4.6579    5.6284   -0.9027 H         1 <0>         0.0770
     45 H15         4.0569   12.0229    0.9274 H         1 <0>         0.4279
     46 H16         3.8863   12.0543   -0.7437 H         1 <0>         0.4154
     47 H17         4.3679    6.5363    2.3962 H         1 <0>         0.4167
     48 H18         4.4086    7.9999    3.2201 H         1 <0>         0.4053
     49 H19         3.8212   10.0528   -1.9612 H         1 <0>         0.4096
@<TRIPOS>BOND
     1    1    5 1
     2    1    2 2
     3    1   32 1
     4    2    3 1
     5    2   19 1
     6    3    4 1
     7    4    5 2
     8    4    6 1
     9    6    7 2
    10    6    8 am
    11    8    9 1
    12    8   33 1
    13    9   10 1
    14    9   11 1
    15    9   16 1
    16   11   12 1
    17   11   34 1
    18   11   35 1
    19   12   13 1
    20   12   36 1
    21   12   37 1
    22   13   14 2
    23   13   15 1
    24   16   17 2
    25   16   18 1
    26   19   20 1
    27   19   38 1
    28   20   21 1
    29   20   39 1
    30   20   40 1
    31   21   22 1
    32   21   41 1
    33   21   42 1
    34   22   23 1
    35   22   43 1
    36   22   44 1
    37   23   28 1
    38   23   24 2
    39   24   25 1
    40   24   31 1
    41   25   26 2
    42   26   27 1
    43   26   30 1
    44   27   28 am
    45   27   49 1
    46   28   29 2
    47   30   45 1
    48   30   46 1
    49   31   47 1
    50   31   48 1
@<TRIPOS>MOLECULE
CHEMBL257691
   68    71     0     0     0
SMALL
USER_CHARGES

@<TRIPOS>ATOM
      1 C1         -0.0164    1.3605    0.0095 C.ar      1 <0>        -0.1258
      2 C2          1.1688    2.0849    0.0021 C.ar      1 <0>        -0.0860
      3 C3          2.3858    1.4375   -0.0134 C.ar      1 <0>        -0.0955
      4 C4          2.4282    0.0505   -0.0212 C.ar      1 <0>         0.0242
      5 C5          1.2268   -0.6841   -0.0132 C.ar      1 <0>         0.0162
      6 C6          0.0021   -0.0041    0.0020 C.ar      1 <0>        -0.0484
      7 N1          1.5670   -1.9857   -0.0235 N.2       1 <0>        -0.4122
      8 C7          2.8722   -2.0845   -0.0370 C.2       1 <0>         0.1873
      9 O1          3.4275   -0.8557   -0.0359 O.3       1 <0>        -0.1842
     10 C8          3.6230   -3.3503   -0.0502 C.2       1 <0>         0.4499
     11 O2          3.0291   -4.4074   -0.0491 O.2       1 <0>        -0.3739
     12 C9          5.1298   -3.3325   -0.0651 C.3       1 <0>        -0.0719
     13 C10         5.6239   -3.1942   -1.5065 C.3       1 <0>        -0.1070
     14 C11         5.1975   -1.8345   -2.0636 C.3       1 <0>        -0.1183
     15 C12         5.6917   -1.6963   -3.5050 C.3       1 <0>        -0.0260
     16 C13         5.2717   -0.3571   -4.0538 C.2       1 <0>        -0.3984
     17 C14         6.1373    0.7267   -4.0132 C.2       1 <0>         0.4896
     18 N2          5.7457    1.9076   -4.5061 N.2       1 <0>        -0.6240
     19 C15         4.5491    2.0632   -5.0318 C.2       1 <0>         0.6633
     20 N3          3.6635    1.0317   -5.0948 N.am      1 <0>        -0.6619
     21 H1          2.7869    1.1698   -5.4864 H         1 <0>         0.4080
     22 C16         4.0043   -0.1841   -4.6189 C.2       1 <0>         0.5549
     23 O3          3.2176   -1.1161   -4.6761 O.2       1 <0>        -0.5451
     24 N4          4.1876    3.2884   -5.5252 N.pl3     1 <0>        -0.8226
     25 N5          7.3969    0.5874   -3.4663 N.pl3     1 <0>        -0.8270
     26 C17         5.6532   -4.6169    0.5243 C.ar      1 <0>        -0.0862
     27 C18         5.3302   -5.8267   -0.0641 C.ar      1 <0>        -0.0979
     28 C19         5.8060   -7.0061    0.4704 C.ar      1 <0>        -0.0664
     29 C20         6.6150   -6.9770    1.6075 C.ar      1 <0>        -0.0995
     30 C21         6.9370   -5.7531    2.1962 C.ar      1 <0>        -0.0876
     31 C22         6.4592   -4.5806    1.6483 C.ar      1 <0>        -0.1122
     32 C23         7.1281   -8.2371    2.1861 C.2       1 <0>         0.5424
     33 O4          6.8456   -9.3015    1.6715 O.2       1 <0>        -0.5505
     34 N6          7.9090   -8.2056    3.2841 N.am      1 <0>        -0.6748
     35 C24         8.4174   -9.4542    3.8574 C.3       1 <0>         0.0734
     36 H2          8.6278  -10.1627    3.0562 H         1 <0>         0.0783
     37 C25         9.7023   -9.1709    4.6381 C.3       1 <0>        -0.0823
     38 C26        10.7908   -8.6956    3.6737 C.3       1 <0>        -0.1771
     39 C27        12.0565   -8.4166    4.4427 C.2       1 <0>         0.4912
     40 O5         12.0852   -8.5825    5.6502 O.co2     1 <0>        -0.6975
     41 O6         13.0517   -8.0249    3.8573 O.co2     1 <0>        -0.7199
     42 C28         7.3839  -10.0382    4.7858 C.2       1 <0>         0.4981
     43 O7          7.3150  -11.2457    4.9392 O.co2     1 <0>        -0.7009
     44 O8          6.6166   -9.3030    5.3836 O.co2     1 <0>        -0.6984
     45 H3         -0.9619    1.8823    0.0259 H         1 <0>         0.1379
     46 H4          1.1366    3.1644    0.0082 H         1 <0>         0.1404
     47 H5          3.3029    2.0078   -0.0198 H         1 <0>         0.1366
     48 H6         -0.9249   -0.5582    0.0082 H         1 <0>         0.1388
     49 H7          5.4890   -2.4891    0.5246 H         1 <0>         0.1131
     50 H8          6.7111   -3.2705   -1.5268 H         1 <0>         0.0898
     51 H9          5.1926   -3.9882   -2.1162 H         1 <0>         0.0767
     52 H10         4.1104   -1.7583   -2.0433 H         1 <0>         0.0578
     53 H11         5.6289   -1.0406   -1.4539 H         1 <0>         0.0652
     54 H12         6.7788   -1.7725   -3.5253 H         1 <0>         0.0603
     55 H13         5.2604   -2.4902   -4.1147 H         1 <0>         0.0723
     56 H14         4.8109    4.0305   -5.4852 H         1 <0>         0.4274
     57 H15         3.3082    3.4141   -5.9148 H         1 <0>         0.4146
     58 H16         7.6786   -0.2694   -3.1092 H         1 <0>         0.4172
     59 H17         8.0004    1.3463   -3.4389 H         1 <0>         0.4048
     60 H18         4.7038   -5.8478   -0.9437 H         1 <0>         0.1264
     61 H19         5.5529   -7.9498    0.0104 H         1 <0>         0.1363
     62 H20         7.5625   -5.7238    3.0762 H         1 <0>         0.1322
     63 H21         6.7113   -3.6327    2.1003 H         1 <0>         0.1265
     64 H22         8.1344   -7.3562    3.6948 H         1 <0>         0.3914
     65 H23         9.5125   -8.3969    5.3817 H         1 <0>         0.0601
     66 H24        10.0321  -10.0817    5.1379 H         1 <0>         0.0727
     67 H25        10.9807   -9.4697    2.9301 H         1 <0>         0.0528
     68 H26        10.4610   -7.7848    3.1739 H         1 <0>         0.0512
@<TRIPOS>BOND
     1    1    6 ar
     2    1    2 ar
     3    1   45 1
     4    2    3 ar
     5    2   46 1
     6    3    4 ar
     7    3   47 1
     8    4    9 1
     9    4    5 ar
    10    5    6 ar
    11    5    7 1
    12    6   48 1
    13    7    8 2
    14    8    9 1
    15    8   10 1
    16   10   11 2
    17   10   12 1
    18   12   13 1
    19   12   26 1
    20   12   49 1
    21   13   14 1
    22   13   50 1
    23   13   51 1
    24   14   15 1
    25   14   52 1
    26   14   53 1
    27   15   16 1
    28   15   54 1
    29   15   55 1
    30   16   22 1
    31   16   17 2
    32   17   18 1
    33   17   25 1
    34   18   19 2
    35   19   20 1
    36   19   24 1
    37   20   21 1
    38   20   22 am
    39   22   23 2
    40   24   56 1
    41   24   57 1
    42   25   58 1
    43   25   59 1
    44   26   31 ar
    45   26   27 ar
    46   27   28 ar
    47   27   60 1
    48   28   29 ar
    49   28   61 1
    50   29   30 ar
    51   29   32 1
    52   30   31 ar
    53   30   62 1
    54   31   63 1
    55   32   33 2
    56   32   34 am
    57   34   35 1
    58   34   64 1
    59   35   36 1
    60   35   37 1
    61   35   42 1
    62   37   38 1
    63   37   65 1
    64   37   66 1
    65   38   39 1
    66   38   67 1
    67   38   68 1
    68   39   40 2
    69   39   41 1
    70   42   43 2
    71   42   44 1
@<TRIPOS>MOLECULE
CHEMBL257691__1
   68    71     0     0     0
SMALL
USER_CHARGES

@<TRIPOS>ATOM
      1 C1         -0.0164    1.3605    0.0095 C.ar      1 <0>        -0.1228
      2 C2          1.1688    2.0849    0.0021 C.ar      1 <0>        -0.0801
      3 C3          2.3858    1.4375   -0.0134 C.ar      1 <0>        -0.0928
      4 C4          2.4282    0.0505   -0.0212 C.ar      1 <0>         0.0276
      5 C5          1.2268   -0.6841   -0.0132 C.ar      1 <0>         0.0105
      6 C6          0.0021   -0.0041    0.0020 C.ar      1 <0>        -0.0512
      7 N1          1.5670   -1.9857   -0.0235 N.2       1 <0>        -0.4115
      8 C7          2.8722   -2.0845   -0.0370 C.2       1 <0>         0.1738
      9 O1          3.4275   -0.8557   -0.0359 O.3       1 <0>        -0.1835
     10 C8          3.6230   -3.3503   -0.0502 C.2       1 <0>         0.4634
     11 O2          3.0291   -4.4074   -0.0491 O.2       1 <0>        -0.3912
     12 C9          5.1298   -3.3325   -0.0651 C.3       1 <0>        -0.0747
     13 C10         5.6612   -4.6365    0.5333 C.3       1 <0>        -0.1070
     14 C11         5.2719   -4.7154    2.0109 C.3       1 <0>        -0.1183
     15 C12         5.8033   -6.0193    2.6093 C.3       1 <0>        -0.0242
     16 C13         5.4199   -6.0971    4.0647 C.2       1 <0>        -0.3993
     17 C14         4.2780   -6.7792    4.4597 C.2       1 <0>         0.4887
     18 N2          3.9549   -6.8372    5.7570 N.2       1 <0>        -0.6249
     19 C15         4.7026   -6.2568    6.6717 C.2       1 <0>         0.6626
     20 N3          5.8318   -5.5755    6.3356 N.am      1 <0>        -0.6620
     21 H1          6.3672   -5.1554    7.0268 H         1 <0>         0.4085
     22 C16         6.2113   -5.4880    5.0436 C.2       1 <0>         0.5555
     23 O3          7.2257   -4.8830    4.7341 O.2       1 <0>        -0.5447
     24 N4          4.3365   -6.3399    7.9886 N.pl3     1 <0>        -0.8229
     25 N5          3.4783   -7.3952    3.5182 N.pl3     1 <0>        -0.8263
     26 C17         5.6165   -3.1963   -1.4848 C.ar      1 <0>        -0.0819
     27 C18         5.2777   -4.1542   -2.4239 C.ar      1 <0>        -0.1202
     28 C19         5.7200   -4.0356   -3.7253 C.ar      1 <0>        -0.0630
     29 C20         6.5109   -2.9461   -4.0937 C.ar      1 <0>        -0.0996
     30 C21         6.8490   -1.9833   -3.1414 C.ar      1 <0>        -0.0836
     31 C22         6.3955   -2.1109   -1.8448 C.ar      1 <0>        -0.1066
     32 C23         6.9888   -2.8127   -5.4864 C.2       1 <0>         0.5422
     33 O4          6.6931   -3.6530   -6.3135 O.2       1 <0>        -0.5504
     34 N6          7.7523   -1.7596   -5.8389 N.am      1 <0>        -0.6740
     35 C24         8.2259   -1.6274   -7.2190 C.3       1 <0>         0.0732
     36 H2          7.4648   -2.0047   -7.9020 H         1 <0>         0.0782
     37 C25         8.5004   -0.1537   -7.5251 C.3       1 <0>        -0.0824
     38 C26         7.1884    0.6315   -7.4704 C.3       1 <0>        -0.1774
     39 C27         7.4588    2.0831   -7.7719 C.2       1 <0>         0.4914
     40 O5          8.5955    2.4551   -8.0086 O.co2     1 <0>        -0.6972
     41 O6          6.5408    2.8854   -7.7792 O.co2     1 <0>        -0.7196
     42 C28         9.4949   -2.4214   -7.3928 C.2       1 <0>         0.4985
     43 O7          9.7657   -2.9081   -8.4774 O.co2     1 <0>        -0.7006
     44 O8         10.2507   -2.5771   -6.4489 O.co2     1 <0>        -0.6979
     45 H3         -0.9619    1.8823    0.0259 H         1 <0>         0.1392
     46 H4          1.1366    3.1644    0.0082 H         1 <0>         0.1446
     47 H5          3.3029    2.0078   -0.0198 H         1 <0>         0.1433
     48 H6         -0.9249   -0.5582    0.0082 H         1 <0>         0.1378
     49 H7          5.4890   -2.4891    0.5246 H         1 <0>         0.1132
     50 H8          5.2312   -5.4834   -0.0014 H         1 <0>         0.0798
     51 H9          6.7470   -4.6623    0.4418 H         1 <0>         0.0865
     52 H10         5.7019   -3.8684    2.5456 H         1 <0>         0.0655
     53 H11         4.1861   -4.6895    2.1024 H         1 <0>         0.0555
     54 H12         5.3734   -6.8663    2.0746 H         1 <0>         0.0578
     55 H13         6.8892   -6.0452    2.5178 H         1 <0>         0.0743
     56 H14         3.5334   -6.8228    8.2392 H         1 <0>         0.4271
     57 H15         4.8802   -5.9160    8.6708 H         1 <0>         0.4146
     58 H16         3.7142   -7.3517    2.5783 H         1 <0>         0.4178
     59 H17         2.6805   -7.8716    3.7965 H         1 <0>         0.4040
     60 H18         4.6660   -4.9969   -2.1375 H         1 <0>         0.1272
     61 H19         5.4552   -4.7842   -4.4573 H         1 <0>         0.1376
     62 H20         7.4607   -1.1379   -3.4200 H         1 <0>         0.1338
     63 H21         6.6527   -1.3644   -1.1080 H         1 <0>         0.1296
     64 H22         7.9883   -1.0891   -5.1789 H         1 <0>         0.3916
     65 H23         9.1949    0.2474   -6.7870 H         1 <0>         0.0605
     66 H24         8.9361   -0.0644   -8.5202 H         1 <0>         0.0731
     67 H25         6.4938    0.2303   -8.2085 H         1 <0>         0.0526
     68 H26         6.7526    0.5421   -6.4753 H         1 <0>         0.0505
@<TRIPOS>BOND
     1    1    6 ar
     2    1    2 ar
     3    1   45 1
     4    2    3 ar
     5    2   46 1
     6    3    4 ar
     7    3   47 1
     8    4    9 1
     9    4    5 ar
    10    5    6 ar
    11    5    7 1
    12    6   48 1
    13    7    8 2
    14    8    9 1
    15    8   10 1
    16   10   11 2
    17   10   12 1
    18   12   13 1
    19   12   26 1
    20   12   49 1
    21   13   14 1
    22   13   50 1
    23   13   51 1
    24   14   15 1
    25   14   52 1
    26   14   53 1
    27   15   16 1
    28   15   54 1
    29   15   55 1
    30   16   22 1
    31   16   17 2
    32   17   18 1
    33   17   25 1
    34   18   19 2
    35   19   20 1
    36   19   24 1
    37   20   21 1
    38   20   22 am
    39   22   23 2
    40   24   56 1
    41   24   57 1
    42   25   58 1
    43   25   59 1
    44   26   31 ar
    45   26   27 ar
    46   27   28 ar
    47   27   60 1
    48   28   29 ar
    49   28   61 1
    50   29   30 ar
    51   29   32 1
    52   30   31 ar
    53   30   62 1
    54   31   63 1
    55   32   33 2
    56   32   34 am
    57   34   35 1
    58   34   64 1
    59   35   36 1
    60   35   37 1
    61   35   42 1
    62   37   38 1
    63   37   65 1
    64   37   66 1
    65   38   39 1
    66   38   67 1
    67   38   68 1
    68   39   40 2
    69   39   41 1
    70   42   43 2
    71   42   44 1
@<TRIPOS>MOLECULE
CHEMBL315627
   52    53     0     0     0
SMALL
USER_CHARGES

@<TRIPOS>ATOM
      1 C1         -0.1758    1.9525   -0.0288 C.3       1 <0>        -0.0890
      2 C2         -0.0071    0.4558   -0.0792 C.2       1 <0>        -0.1441
      3 C3          0.0409   -0.1997   -1.2861 C.2       1 <0>        -0.0939
      4 C4          0.1985   -1.5756   -1.2184 C.2       1 <0>        -0.2031
      5 S1          0.2681   -1.8499    0.5417 S.3       1 <0>         0.2060
      6 C5          0.1051   -0.2621    1.0657 C.2       1 <0>        -0.2214
      7 C6          0.0856    0.2475    2.4837 C.3       1 <0>        -0.0216
      8 C7         -1.3538    0.2576    3.0022 C.3       1 <0>        -0.0992
      9 C8         -1.3737    0.7750    4.4420 C.3       1 <0>        -0.1031
     10 S2         -3.0803    0.7869    5.0567 S.3       1 <0>        -0.0907
     11 C9         -2.9229    1.2767    6.7420 C.2       1 <0>        -0.4288
     12 C10        -3.4471    2.4869    7.1806 C.2       1 <0>         0.5301
     13 N1         -3.3161    2.8394    8.4654 N.2       1 <0>        -0.6257
     14 C11        -2.6985    2.0604    9.3265 C.2       1 <0>         0.6773
     15 N2         -2.1669    0.8656    8.9491 N.am      1 <0>        -0.6602
     16 C12        -2.2714    0.4508    7.6692 C.2       1 <0>         0.5631
     17 O1         -1.8022   -0.6229    7.3234 O.2       1 <0>        -0.5245
     18 N3         -2.5871    2.4611   10.6340 N.pl3     1 <0>        -0.8184
     19 N4         -4.1011    3.3241    6.2929 N.pl3     1 <0>        -0.8151
     20 C13         0.2852   -2.5505   -2.3096 C.2       1 <0>         0.5948
     21 O2          0.2175   -2.1771   -3.4660 O.2       1 <0>        -0.5428
     22 N5          0.4399   -3.8603   -2.0324 N.am      1 <0>        -0.6729
     23 C14         0.5265   -4.8346   -3.1230 C.3       1 <0>         0.0728
     24 H1          1.0508   -4.3884   -3.9680 H         1 <0>         0.0799
     25 C15         1.2909   -6.0702   -2.6434 C.3       1 <0>        -0.0808
     26 C16         2.7378   -5.6847   -2.3291 C.3       1 <0>        -0.1788
     27 C17         3.4906   -6.9017   -1.8568 C.2       1 <0>         0.4914
     28 O3          2.9226   -7.9777   -1.7788 O.co2     1 <0>        -0.6968
     29 O4          4.6678   -6.8104   -1.5527 O.co2     1 <0>        -0.7203
     30 C18        -0.8620   -5.2368   -3.5488 C.2       1 <0>         0.4960
     31 O5         -1.8339   -4.7543   -2.9928 O.co2     1 <0>        -0.6953
     32 O6         -1.0135   -6.0447   -4.4493 O.co2     1 <0>        -0.6988
     33 H2          0.8042    2.4293   -0.0440 H         1 <0>         0.0611
     34 H3         -0.7537    2.2822   -0.8922 H         1 <0>         0.0616
     35 H4         -0.7000    2.2285    0.8861 H         1 <0>         0.0608
     36 H5         -0.0394    0.3236   -2.2274 H         1 <0>         0.1439
     37 H6          0.6936   -0.4033    3.1121 H         1 <0>         0.0786
     38 H7          0.4889    1.2598    2.5117 H         1 <0>         0.0808
     39 H8         -1.9618    0.9084    2.3739 H         1 <0>         0.0736
     40 H9         -1.7572   -0.7547    2.9743 H         1 <0>         0.0793
     41 H10        -0.7657    0.1241    5.0704 H         1 <0>         0.0865
     42 H11        -0.9704    1.7872    4.4699 H         1 <0>         0.0728
     43 H12        -2.9619    3.3108   10.9145 H         1 <0>         0.4286
     44 H13        -2.1337    1.8948   11.2780 H         1 <0>         0.4169
     45 H14        -4.2683    3.0311    5.3835 H         1 <0>         0.4238
     46 H15        -4.3921    4.2036    6.5804 H         1 <0>         0.4049
     47 H16         0.4938   -4.1579   -1.1107 H         1 <0>         0.3895
     48 H17         0.8166   -6.4648   -1.7448 H         1 <0>         0.0562
     49 H18         1.2789   -6.8306   -3.4243 H         1 <0>         0.0806
     50 H19         3.2120   -5.2902   -3.2277 H         1 <0>         0.0526
     51 H20         2.7497   -4.9243   -1.5482 H         1 <0>         0.0503
     52 H21        -1.7154    0.3090    9.6027 H         1 <0>         0.4115
@<TRIPOS>BOND
     1    1    2 1
     2    1   33 1
     3    1   34 1
     4    1   35 1
     5    2    6 2
     6    2    3 1
     7    3    4 2
     8    3   36 1
     9    4    5 1
    10    4   20 1
    11    5    6 1
    12    6    7 1
    13    7    8 1
    14    7   37 1
    15    7   38 1
    16    8    9 1
    17    8   39 1
    18    8   40 1
    19    9   10 1
    20    9   41 1
    21    9   42 1
    22   10   11 1
    23   11   16 1
    24   11   12 2
    25   12   13 1
    26   12   19 1
    27   13   14 2
    28   14   15 1
    29   14   18 1
    30   15   16 am
    31   15   52 1
    32   16   17 2
    33   18   43 1
    34   18   44 1
    35   19   45 1
    36   19   46 1
    37   20   21 2
    38   20   22 am
    39   22   23 1
    40   22   47 1
    41   23   24 1
    42   23   25 1
    43   23   30 1
    44   25   26 1
    45   25   48 1
    46   25   49 1
    47   26   27 1
    48   26   50 1
    49   26   51 1
    50   27   28 2
    51   27   29 1
    52   30   31 2
    53   30   32 1
@<TRIPOS>MOLECULE
CHEMBL365307
   56    58     0     0     0
SMALL
USER_CHARGES

@<TRIPOS>ATOM
      1 C1         -0.0167    1.3794    0.0096 C.ar      1 <0>        -0.1294
      2 C2          1.1667    2.0884    0.0021 C.ar      1 <0>        -0.0647
      3 C3          2.3848    1.4070   -0.0132 C.ar      1 <0>        -0.1091
      4 C4          2.3966    0.0113   -0.0208 C.ar      1 <0>        -0.0831
      5 C5          1.2061   -0.6856   -0.0132 C.ar      1 <0>        -0.1239
      6 C6          0.0021   -0.0041    0.0020 C.ar      1 <0>        -0.0783
      7 C7         -1.2946   -0.7719    0.0103 C.3       1 <0>        -0.0763
      8 C8         -1.7472   -1.0241   -1.4293 C.3       1 <0>        -0.1163
      9 C9         -3.0637   -1.8037   -1.4209 C.3       1 <0>        -0.1143
     10 C10        -3.5163   -2.0558   -2.8605 C.3       1 <0>        -0.0531
     11 C11        -4.8129   -2.8237   -2.8522 C.2       1 <0>         0.0381
     12 C12        -4.9209   -4.1593   -2.7573 C.2       1 <0>        -0.1093
     13 C13        -6.3494   -4.4685   -2.7871 C.2       1 <0>        -0.3153
     14 C14        -7.0159   -3.2405   -2.9025 C.2       1 <0>         0.3420
     15 N1         -6.0634   -2.2645   -2.9345 N.pl3     1 <0>        -0.5423
     16 H1         -6.2436   -1.3142   -3.0073 H         1 <0>         0.4187
     17 N2         -8.3560   -3.2266   -2.9526 N.2       1 <0>        -0.5889
     18 C15        -9.0507   -4.3398   -2.8954 C.2       1 <0>         0.6497
     19 N3         -8.4554   -5.5613   -2.7830 N.am      1 <0>        -0.6628
     20 H2         -9.0001   -6.3630   -2.7437 H         1 <0>         0.4125
     21 C16        -7.1078   -5.6582   -2.7265 C.2       1 <0>         0.5830
     22 O1         -6.5621   -6.7437   -2.6264 O.2       1 <0>        -0.5319
     23 N4        -10.4203   -4.2712   -2.9501 N.pl3     1 <0>        -0.8255
     24 C17         3.6569    2.1603   -0.0218 C.2       1 <0>         0.5500
     25 O2          3.6435    3.3757   -0.0155 O.2       1 <0>        -0.5553
     26 N5          4.8314    1.4994   -0.0366 N.am      1 <0>        -0.6756
     27 C18         6.0919    2.2459   -0.0451 C.3       1 <0>         0.0725
     28 H3          5.9814    3.1523    0.5501 H         1 <0>         0.0779
     29 C19         7.2027    1.3778    0.5494 C.3       1 <0>        -0.0806
     30 C20         6.9032    1.1060    2.0250 C.3       1 <0>        -0.1779
     31 C21         7.9973    0.2510    2.6105 C.2       1 <0>         0.4909
     32 O3          8.9302   -0.1078    1.9123 O.co2     1 <0>        -0.6970
     33 O4          7.9496   -0.0820    3.7824 O.co2     1 <0>        -0.7202
     34 C22         6.4472    2.6155   -1.4622 C.2       1 <0>         0.4958
     35 O5          5.7154    2.2860   -2.3799 O.co2     1 <0>        -0.6970
     36 O6          7.4666    3.2441   -1.6909 O.co2     1 <0>        -0.6999
     37 H4         -0.9598    1.9054    0.0260 H         1 <0>         0.1204
     38 H5          1.1508    3.1682    0.0077 H         1 <0>         0.1326
     39 H6          3.3358   -0.5219   -0.0330 H         1 <0>         0.1286
     40 H7          1.2138   -1.7656   -0.0191 H         1 <0>         0.1235
     41 H8         -1.1489   -1.7256    0.5176 H         1 <0>         0.0717
     42 H9         -2.0557   -0.1941    0.5345 H         1 <0>         0.0686
     43 H10        -1.8929   -0.0704   -1.9367 H         1 <0>         0.0654
     44 H11        -0.9861   -1.6019   -1.9536 H         1 <0>         0.0694
     45 H12        -2.9179   -2.7573   -0.9136 H         1 <0>         0.0698
     46 H13        -3.8248   -1.2258   -0.8967 H         1 <0>         0.0607
     47 H14        -3.6620   -1.1021   -3.3679 H         1 <0>         0.0745
     48 H15        -2.7551   -2.6337   -3.3848 H         1 <0>         0.0935
     49 H16        -4.1095   -4.8674   -2.6753 H         1 <0>         0.1513
     50 H17       -10.8600   -3.4102   -3.0297 H         1 <0>         0.4268
     51 H18       -10.9486   -5.0836   -2.9091 H         1 <0>         0.4142
     52 H19         4.8421    0.5294   -0.0416 H         1 <0>         0.3893
     53 H20         7.2537    0.4325    0.0090 H         1 <0>         0.0551
     54 H21         8.1565    1.8981    0.4621 H         1 <0>         0.0793
     55 H22         6.8522    2.0513    2.5654 H         1 <0>         0.0522
     56 H23         5.9494    0.5857    2.1123 H         1 <0>         0.0500
@<TRIPOS>BOND
     1    1    6 ar
     2    1    2 ar
     3    1   37 1
     4    2    3 ar
     5    2   38 1
     6    3    4 ar
     7    3   24 1
     8    4    5 ar
     9    4   39 1
    10    5    6 ar
    11    5   40 1
    12    6    7 1
    13    7    8 1
    14    7   41 1
    15    7   42 1
    16    8    9 1
    17    8   43 1
    18    8   44 1
    19    9   10 1
    20    9   45 1
    21    9   46 1
    22   10   11 1
    23   10   47 1
    24   10   48 1
    25   11   15 1
    26   11   12 2
    27   12   13 1
    28   12   49 1
    29   13   21 1
    30   13   14 2
    31   14   15 1
    32   14   17 1
    33   15   16 1
    34   17   18 2
    35   18   19 1
    36   18   23 1
    37   19   20 1
    38   19   21 am
    39   21   22 2
    40   23   50 1
    41   23   51 1
    42   24   25 2
    43   24   26 am
    44   26   27 1
    45   26   52 1
    46   27   28 1
    47   27   29 1
    48   27   34 1
    49   29   30 1
    50   29   53 1
    51   29   54 1
    52   30   31 1
    53   30   55 1
    54   30   56 1
    55   31   32 2
    56   31   33 1
    57   34   35 2
    58   34   36 1
@<TRIPOS>MOLECULE
CHEMBL225072
   50    52     0     0     0
SMALL
USER_CHARGES

@<TRIPOS>ATOM
      1 C1         -0.0167    1.3794    0.0096 C.ar      1 <0>        -0.1237
      2 C2          1.1667    2.0884    0.0021 C.ar      1 <0>        -0.0650
      3 C3          2.3848    1.4070   -0.0132 C.ar      1 <0>        -0.1108
      4 C4          2.3966    0.0113   -0.0208 C.ar      1 <0>        -0.0853
      5 C5          1.2061   -0.6856   -0.0132 C.ar      1 <0>        -0.1248
      6 C6          0.0021   -0.0041    0.0020 C.ar      1 <0>        -0.0756
      7 C7         -1.2946   -0.7719    0.0103 C.3       1 <0>        -0.0645
      8 C8         -1.7472   -1.0241   -1.4293 C.3       1 <0>        -0.0478
      9 C9         -3.0439   -1.7919   -1.4210 C.2       1 <0>        -0.0685
     10 C10        -3.1874   -3.1243   -1.5149 C.2       1 <0>        -0.0065
     11 N1         -4.5200   -3.4490   -1.4711 N.pl3     1 <0>        -0.5467
     12 H1         -4.8743   -4.3505   -1.5209 H         1 <0>         0.4184
     13 C11        -5.2735   -2.3187   -1.3465 C.2       1 <0>         0.3387
     14 C12        -4.3891   -1.2318   -1.3029 C.2       1 <0>        -0.3095
     15 C13        -4.9114    0.0734   -1.1699 C.2       1 <0>         0.5795
     16 O1         -4.1726    1.0423   -1.1322 O.2       1 <0>        -0.5172
     17 N2         -6.2532    0.2199   -1.0861 N.am      1 <0>        -0.6639
     18 H2         -6.6382    1.1055   -0.9942 H         1 <0>         0.4126
     19 C14        -7.0663   -0.8737   -1.1307 C.2       1 <0>         0.6511
     20 N3         -6.5926   -2.0916   -1.2621 N.2       1 <0>        -0.5927
     21 N4         -8.4242   -0.6953   -1.0434 N.pl3     1 <0>        -0.8265
     22 C15         3.6569    2.1603   -0.0218 C.2       1 <0>         0.5510
     23 O2          3.6435    3.3757   -0.0155 O.2       1 <0>        -0.5556
     24 N5          4.8314    1.4994   -0.0366 N.am      1 <0>        -0.6767
     25 C16         6.0919    2.2459   -0.0451 C.3       1 <0>         0.0726
     26 H3          5.9814    3.1523    0.5501 H         1 <0>         0.0776
     27 C17         7.2027    1.3778    0.5494 C.3       1 <0>        -0.0801
     28 C18         6.9032    1.1060    2.0250 C.3       1 <0>        -0.1779
     29 C19         7.9973    0.2510    2.6105 C.2       1 <0>         0.4911
     30 O3          8.9302   -0.1078    1.9123 O.co2     1 <0>        -0.6973
     31 O4          7.9496   -0.0820    3.7824 O.co2     1 <0>        -0.7205
     32 C20         6.4472    2.6155   -1.4622 C.2       1 <0>         0.4957
     33 O5          5.7154    2.2860   -2.3799 O.co2     1 <0>        -0.6965
     34 O6          7.4666    3.2441   -1.6909 O.co2     1 <0>        -0.7009
     35 H4         -0.9598    1.9054    0.0260 H         1 <0>         0.1238
     36 H5          1.1508    3.1682    0.0077 H         1 <0>         0.1319
     37 H6          3.3358   -0.5219   -0.0330 H         1 <0>         0.1274
     38 H7          1.2138   -1.7656   -0.0191 H         1 <0>         0.1227
     39 H8         -1.1489   -1.7256    0.5176 H         1 <0>         0.0683
     40 H9         -2.0557   -0.1941    0.5345 H         1 <0>         0.0708
     41 H10        -1.8929   -0.0704   -1.9367 H         1 <0>         0.0817
     42 H11        -0.9861   -1.6019   -1.9536 H         1 <0>         0.0745
     43 H12        -2.3774   -3.8322   -1.6109 H         1 <0>         0.1800
     44 H13        -8.7912    0.1979   -0.9515 H         1 <0>         0.4143
     45 H14        -9.0171   -1.4624   -1.0735 H         1 <0>         0.4255
     46 H15         4.8421    0.5294   -0.0416 H         1 <0>         0.3891
     47 H16         7.2537    0.4325    0.0090 H         1 <0>         0.0548
     48 H17         8.1565    1.8981    0.4621 H         1 <0>         0.0788
     49 H18         6.8522    2.0513    2.5654 H         1 <0>         0.0521
     50 H19         5.9494    0.5857    2.1123 H         1 <0>         0.0504
@<TRIPOS>BOND
     1    1    6 ar
     2    1    2 ar
     3    1   35 1
     4    2    3 ar
     5    2   36 1
     6    3    4 ar
     7    3   22 1
     8    4    5 ar
     9    4   37 1
    10    5    6 ar
    11    5   38 1
    12    6    7 1
    13    7    8 1
    14    7   39 1
    15    7   40 1
    16    8    9 1
    17    8   41 1
    18    8   42 1
    19    9   14 1
    20    9   10 2
    21   10   11 1
    22   10   43 1
    23   11   12 1
    24   11   13 1
    25   13   20 1
    26   13   14 2
    27   14   15 1
    28   15   16 2
    29   15   17 am
    30   17   18 1
    31   17   19 1
    32   19   20 2
    33   19   21 1
    34   21   44 1
    35   21   45 1
    36   22   23 2
    37   22   24 am
    38   24   25 1
    39   24   46 1
    40   25   26 1
    41   25   27 1
    42   25   32 1
    43   27   28 1
    44   27   47 1
    45   27   48 1
    46   28   29 1
    47   28   49 1
    48   28   50 1
    49   29   30 2
    50   29   31 1
    51   32   33 2
    52   32   34 1
@<TRIPOS>MOLECULE
CHEMBL38902
   56    58     0     0     0
SMALL
USER_CHARGES

@<TRIPOS>ATOM
      1 C1         -0.0169    1.3937    0.0097 C.ar      1 <0>        -0.0185
      2 C2          1.1662    2.0965    0.0022 C.ar      1 <0>        -0.2060
      3 C3          2.3811    1.4169   -0.0131 C.ar      1 <0>         0.2232
      4 C4          2.4034    0.0249   -0.0208 C.ar      1 <0>        -0.2009
      5 C5          1.2237   -0.6836   -0.0138 C.ar      1 <0>        -0.0375
      6 C6          0.0021   -0.0041    0.0020 C.ar      1 <0>        -0.1661
      7 C7         -1.2644   -0.7605    0.0105 C.2       1 <0>         0.5531
      8 O1         -2.3263   -0.1682    0.0243 O.2       1 <0>        -0.5638
      9 N1         -1.2445   -2.1081    0.0031 N.am      1 <0>        -0.6792
     10 C8         -2.5022   -2.8593    0.0116 C.3       1 <0>         0.0783
     11 C9         -2.2637   -4.2464    0.6114 C.3       1 <0>        -0.0801
     12 C10        -1.8670   -4.1047    2.0823 C.3       1 <0>        -0.7192
     13 P1         -1.5829   -5.7575    2.7970 P.3       1 <0>         2.2549
     14 O2         -2.8354   -6.6353    2.5786 O.2       1 <0>        -1.0983
     15 O3         -0.3667   -6.4148    2.1071 O.3       1 <0>        -1.1004
     16 O4         -1.2941   -5.6175    4.3747 O.3       1 <0>        -0.9052
     17 C11        -3.0110   -3.0030   -1.3996 C.2       1 <0>         0.4964
     18 O5         -2.3006   -2.6873   -2.3389 O.co2     1 <0>        -0.6946
     19 O6         -4.1331   -3.4348   -1.6021 O.co2     1 <0>        -0.6987
     20 N2          3.5749    2.1299   -0.0211 N.pl3     1 <0>        -0.7478
     21 C12         4.8542    1.4162   -0.0371 C.3       1 <0>         0.1306
     22 C13         6.0023    2.4276   -0.0432 C.3       1 <0>        -0.1132
     23 C14         7.3358    1.6889   -0.1672 C.3       1 <0>        -0.0213
     24 C15         8.4815    2.6359    0.0618 C.2       1 <0>        -0.3896
     25 C16         8.3137    3.8364    0.7281 C.2       1 <0>         0.4844
     26 N3          9.3652    4.6459    0.9152 N.2       1 <0>        -0.6234
     27 C17        10.5608    4.3233    0.4706 C.2       1 <0>         0.6607
     28 N4         10.7769    3.1563   -0.1953 N.am      1 <0>        -0.6613
     29 C18         9.7567    2.3000   -0.4091 C.2       1 <0>         0.5558
     30 O7          9.9423    1.2494   -1.0029 O.2       1 <0>        -0.5468
     31 N5         11.6087    5.1792    0.6819 N.pl3     1 <0>        -0.8228
     32 N6          7.0723    4.2181    1.2008 N.pl3     1 <0>        -0.7070
     33 C19         5.9973    3.2195    1.2710 C.3       1 <0>         0.1283
     34 H1         -0.9590    1.9215    0.0260 H         1 <0>         0.1317
     35 H2          1.1522    3.1764    0.0078 H         1 <0>         0.1193
     36 H3          3.3474   -0.4995   -0.0326 H         1 <0>         0.1244
     37 H4          1.2416   -1.7634   -0.0204 H         1 <0>         0.1278
     38 H5         -0.3974   -2.5806   -0.0078 H         1 <0>         0.3897
     39 H6         -3.2399   -2.3261    0.6112 H         1 <0>         0.0743
     40 H7         -3.1771   -4.8365    0.5367 H         1 <0>         0.0886
     41 H8         -1.4631   -4.7456    0.0656 H         1 <0>         0.0662
     42 H9         -0.9536   -3.5146    2.1570 H         1 <0>         0.0639
     43 H10        -2.6677   -3.6056    2.6281 H         1 <0>         0.0635
     44 H11        -1.1335   -6.4600    4.8214 H         1 <0>         0.4056
     45 H12         3.5606    3.0997   -0.0161 H         1 <0>         0.3950
     46 H13         4.9299    0.7860    0.8490 H         1 <0>         0.0665
     47 H14         4.9126    0.7950   -0.9309 H         1 <0>         0.0694
     48 H15         5.8818    3.1122   -0.8828 H         1 <0>         0.0843
     49 H16         7.3753    0.8893    0.5726 H         1 <0>         0.0663
     50 H17         7.4180    1.2579   -1.1650 H         1 <0>         0.0778
     51 H18        11.4654    6.0137    1.1551 H         1 <0>         0.4274
     52 H19        12.4942    4.9510    0.3583 H         1 <0>         0.4146
     53 H20         6.9132    5.1325    1.4826 H         1 <0>         0.4080
     54 H21         5.0370    3.7195    1.3966 H         1 <0>         0.0894
     55 H22         6.1749    2.5450    2.1086 H         1 <0>         0.0730
     56 H23        11.6661    2.9399   -0.5171 H         1 <0>         0.4092
@<TRIPOS>BOND
     1    1    6 ar
     2    1    2 ar
     3    1   34 1
     4    2    3 ar
     5    2   35 1
     6    3    4 ar
     7    3   20 1
     8    4    5 ar
     9    4   36 1
    10    5    6 ar
    11    5   37 1
    12    6    7 1
    13    7    8 2
    14    7    9 am
    15    9   10 1
    16    9   38 1
    17   10   11 1
    18   10   17 1
    19   10   39 1
    20   11   12 1
    21   11   40 1
    22   11   41 1
    23   12   13 1
    24   12   42 1
    25   12   43 1
    26   13   14 2
    27   13   15 1
    28   13   16 1
    29   16   44 1
    30   17   18 2
    31   17   19 1
    32   20   21 1
    33   20   45 1
    34   21   22 1
    35   21   46 1
    36   21   47 1
    37   22   33 1
    38   22   23 1
    39   22   48 1
    40   23   24 1
    41   23   49 1
    42   23   50 1
    43   24   29 1
    44   24   25 2
    45   25   26 1
    46   25   32 1
    47   26   27 2
    48   27   28 1
    49   27   31 1
    50   28   29 am
    51   28   56 1
    52   29   30 2
    53   31   51 1
    54   31   52 1
    55   32   33 1
    56   32   53 1
    57   33   54 1
    58   33   55 1
@<TRIPOS>MOLECULE
CHEMBL38902__1
   55    57     0     0     0
SMALL
USER_CHARGES

@<TRIPOS>ATOM
      1 C1         -0.0169    1.3937    0.0097 C.ar      1 <0>        -0.0218
      2 C2          1.1662    2.0965    0.0022 C.ar      1 <0>        -0.2069
      3 C3          2.3811    1.4169   -0.0131 C.ar      1 <0>         0.2166
      4 C4          2.4034    0.0249   -0.0208 C.ar      1 <0>        -0.1980
      5 C5          1.2237   -0.6836   -0.0138 C.ar      1 <0>        -0.0364
      6 C6          0.0021   -0.0041    0.0020 C.ar      1 <0>        -0.1580
      7 C7         -1.2644   -0.7605    0.0105 C.2       1 <0>         0.5429
      8 O1         -2.3263   -0.1682    0.0243 O.2       1 <0>        -0.5707
      9 N1         -1.2445   -2.1081    0.0031 N.am      1 <0>        -0.6673
     10 C8         -2.5022   -2.8593    0.0116 C.3       1 <0>         0.0779
     11 C9         -2.2637   -4.2464    0.6114 C.3       1 <0>        -0.0762
     12 C10        -1.8670   -4.1047    2.0823 C.3       1 <0>        -0.7192
     13 P1         -1.5829   -5.7575    2.7970 P.3       1 <0>         2.2262
     14 O2         -2.8529   -6.6476    2.5755 O.2       1 <0>        -1.1884
     15 O3         -0.3496   -6.4240    2.0975 O.3       1 <0>        -1.1893
     16 O4         -1.3019   -5.6213    4.3322 O.3       1 <0>        -1.1970
     17 C11        -3.0110   -3.0030   -1.3996 C.2       1 <0>         0.5021
     18 O5         -2.2242   -3.0459   -2.3300 O.co2     1 <0>        -0.7038
     19 O6         -4.2095   -3.0763   -1.6111 O.co2     1 <0>        -0.7061
     20 N2          3.5749    2.1299   -0.0211 N.pl3     1 <0>        -0.7497
     21 C12         4.8542    1.4162   -0.0371 C.3       1 <0>         0.1304
     22 C13         6.0023    2.4276   -0.0432 C.3       1 <0>        -0.1116
     23 C14         7.3358    1.6889   -0.1672 C.3       1 <0>        -0.0232
     24 C15         8.4815    2.6359    0.0618 C.2       1 <0>        -0.3862
     25 C16         8.3137    3.8364    0.7281 C.2       1 <0>         0.4824
     26 N3          9.3652    4.6459    0.9152 N.2       1 <0>        -0.6225
     27 C17        10.5608    4.3233    0.4706 C.2       1 <0>         0.6583
     28 N4         10.7769    3.1563   -0.1953 N.am      1 <0>        -0.6613
     29 C18         9.7567    2.3000   -0.4091 C.2       1 <0>         0.5549
     30 O7          9.9423    1.2494   -1.0029 O.2       1 <0>        -0.5460
     31 N5         11.6087    5.1792    0.6819 N.pl3     1 <0>        -0.8244
     32 N6          7.0723    4.2181    1.2008 N.pl3     1 <0>        -0.7060
     33 C19         5.9973    3.2195    1.2710 C.3       1 <0>         0.1269
     34 H1         -0.9590    1.9215    0.0260 H         1 <0>         0.1309
     35 H2          1.1522    3.1764    0.0078 H         1 <0>         0.1166
     36 H3          3.3474   -0.4995   -0.0326 H         1 <0>         0.1240
     37 H4          1.2416   -1.7634   -0.0204 H         1 <0>         0.1319
     38 H5         -0.3974   -2.5806   -0.0078 H         1 <0>         0.3920
     39 H6         -3.2399   -2.3261    0.6112 H         1 <0>         0.0696
     40 H7         -3.1771   -4.8365    0.5367 H         1 <0>         0.0735
     41 H8         -1.4631   -4.7456    0.0656 H         1 <0>         0.0582
     42 H9         -0.9536   -3.5146    2.1570 H         1 <0>         0.0386
     43 H10        -2.6677   -3.6056    2.6281 H         1 <0>         0.0383
     44 H11         3.5606    3.0997   -0.0161 H         1 <0>         0.3926
     45 H12         4.9299    0.7860    0.8490 H         1 <0>         0.0671
     46 H13         4.9126    0.7950   -0.9309 H         1 <0>         0.0687
     47 H14         5.8818    3.1122   -0.8828 H         1 <0>         0.0830
     48 H15         7.3753    0.8893    0.5726 H         1 <0>         0.0680
     49 H16         7.4180    1.2579   -1.1650 H         1 <0>         0.0779
     50 H17        11.4654    6.0137    1.1551 H         1 <0>         0.4265
     51 H18        12.4942    4.9510    0.3583 H         1 <0>         0.4136
     52 H19         6.9132    5.1325    1.4826 H         1 <0>         0.4072
     53 H20         5.0370    3.7195    1.3966 H         1 <0>         0.0906
     54 H21         6.1749    2.5450    2.1086 H         1 <0>         0.0745
     55 H22        11.6661    2.9399   -0.5171 H         1 <0>         0.4081
@<TRIPOS>BOND
     1    1    6 ar
     2    1    2 ar
     3    1   34 1
     4    2    3 ar
     5    2   35 1
     6    3    4 ar
     7    3   20 1
     8    4    5 ar
     9    4   36 1
    10    5    6 ar
    11    5   37 1
    12    6    7 1
    13    7    8 2
    14    7    9 am
    15    9   10 1
    16    9   38 1
    17   10   11 1
    18   10   17 1
    19   10   39 1
    20   11   12 1
    21   11   40 1
    22   11   41 1
    23   12   13 1
    24   12   42 1
    25   12   43 1
    26   13   14 2
    27   13   15 1
    28   13   16 1
    29   17   18 2
    30   17   19 1
    31   20   21 1
    32   20   44 1
    33   21   22 1
    34   21   45 1
    35   21   46 1
    36   22   33 1
    37   22   23 1
    38   22   47 1
    39   23   24 1
    40   23   48 1
    41   23   49 1
    42   24   29 1
    43   24   25 2
    44   25   26 1
    45   25   32 1
    46   26   27 2
    47   27   28 1
    48   27   31 1
    49   28   29 am
    50   28   55 1
    51   29   30 2
    52   31   50 1
    53   31   51 1
    54   32   33 1
    55   32   52 1
    56   33   53 1
    57   33   54 1
@<TRIPOS>MOLECULE
CHEMBL38902__2
   56    58     0     0     0
SMALL
USER_CHARGES

@<TRIPOS>ATOM
      1 C1         -0.0169    1.3937    0.0097 C.ar      1 <0>        -0.0185
      2 C2          1.1662    2.0965    0.0022 C.ar      1 <0>        -0.2059
      3 C3          2.3811    1.4169   -0.0131 C.ar      1 <0>         0.2228
      4 C4          2.4034    0.0249   -0.0208 C.ar      1 <0>        -0.2001
      5 C5          1.2237   -0.6836   -0.0138 C.ar      1 <0>        -0.0370
      6 C6          0.0021   -0.0041    0.0020 C.ar      1 <0>        -0.1668
      7 C7         -1.2644   -0.7605    0.0105 C.2       1 <0>         0.5481
      8 O1         -2.3263   -0.1682    0.0243 O.2       1 <0>        -0.5615
      9 N1         -1.2445   -2.1081    0.0031 N.am      1 <0>        -0.6796
     10 C8         -2.5022   -2.8593    0.0116 C.3       1 <0>         0.0792
     11 C9         -2.2637   -4.2464    0.6114 C.3       1 <0>        -0.0815
     12 C10        -1.8670   -4.1047    2.0823 C.3       1 <0>        -0.7188
     13 P1         -1.5829   -5.7575    2.7970 P.3       1 <0>         2.2548
     14 O2         -2.8354   -6.6353    2.5786 O.2       1 <0>        -1.0987
     15 O3         -0.3667   -6.4148    2.1071 O.3       1 <0>        -1.0996
     16 O4         -1.2941   -5.6175    4.3747 O.3       1 <0>        -0.9052
     17 C11        -3.0110   -3.0030   -1.3996 C.2       1 <0>         0.4977
     18 O5         -2.2242   -3.0459   -2.3300 O.co2     1 <0>        -0.6951
     19 O6         -4.2095   -3.0763   -1.6111 O.co2     1 <0>        -0.6991
     20 N2          3.5749    2.1299   -0.0211 N.pl3     1 <0>        -0.7483
     21 C12         4.8542    1.4162   -0.0371 C.3       1 <0>         0.1300
     22 C13         6.0023    2.4276   -0.0432 C.3       1 <0>        -0.1157
     23 C14         7.3362    1.6891   -0.1642 C.3       1 <0>        -0.0298
     24 C15         8.4820    2.6342    0.0740 C.2       1 <0>        -0.3417
     25 C16         8.3182    3.8122    0.7338 C.2       1 <0>         0.4451
     26 N3          9.4036    4.6283    0.9278 N.pl3     1 <0>        -0.6543
     27 C17        10.6277    4.2627    0.4584 C.2       1 <0>         0.6586
     28 N4         10.7977    3.1282   -0.1858 N.2       1 <0>        -0.6339
     29 C18         9.7681    2.2941   -0.3982 C.2       1 <0>         0.5447
     30 O7          9.9432    1.2438   -0.9989 O.2       1 <0>        -0.5248
     31 N5         11.7006    5.0899    0.6598 N.pl3     1 <0>        -0.8248
     32 N6          7.0861    4.2044    1.2049 N.pl3     1 <0>        -0.7318
     33 C19         5.9977    3.2199    1.2712 C.3       1 <0>         0.1333
     34 H1         -0.9590    1.9215    0.0260 H         1 <0>         0.1321
     35 H2          1.1522    3.1764    0.0078 H         1 <0>         0.1191
     36 H3          3.3474   -0.4995   -0.0326 H         1 <0>         0.1252
     37 H4          1.2416   -1.7634   -0.0204 H         1 <0>         0.1290
     38 H5         -0.3974   -2.5806   -0.0078 H         1 <0>         0.3913
     39 H6         -3.2399   -2.3261    0.6112 H         1 <0>         0.0740
     40 H7         -3.1771   -4.8365    0.5367 H         1 <0>         0.0843
     41 H8         -1.4631   -4.7456    0.0656 H         1 <0>         0.0702
     42 H9         -0.9536   -3.5146    2.1570 H         1 <0>         0.0644
     43 H10        -2.6677   -3.6056    2.6281 H         1 <0>         0.0635
     44 H11        -1.1335   -6.4600    4.8214 H         1 <0>         0.4057
     45 H12         3.5606    3.0997   -0.0161 H         1 <0>         0.3942
     46 H13         4.9299    0.7860    0.8490 H         1 <0>         0.0675
     47 H14         4.9126    0.7950   -0.9309 H         1 <0>         0.0715
     48 H15         5.8826    3.1118   -0.8832 H         1 <0>         0.0856
     49 H16         7.3720    0.8863    0.5721 H         1 <0>         0.0734
     50 H17         7.4227    1.2623   -1.1635 H         1 <0>         0.0862
     51 H18        11.5844    5.9284    1.1335 H         1 <0>         0.4091
     52 H19        12.5766    4.8373    0.3288 H         1 <0>         0.4308
     53 H20         6.9380    5.1198    1.4894 H         1 <0>         0.4030
     54 H21         5.0431    3.7325    1.3901 H         1 <0>         0.0920
     55 H22         6.1617    2.5440    2.1104 H         1 <0>         0.0759
     56 H23         9.2984    5.4687    1.4006 H         1 <0>         0.4100
@<TRIPOS>BOND
     1    1    6 ar
     2    1    2 ar
     3    1   34 1
     4    2    3 ar
     5    2   35 1
     6    3    4 ar
     7    3   20 1
     8    4    5 ar
     9    4   36 1
    10    5    6 ar
    11    5   37 1
    12    6    7 1
    13    7    8 2
    14    7    9 am
    15    9   10 1
    16    9   38 1
    17   10   11 1
    18   10   17 1
    19   10   39 1
    20   11   12 1
    21   11   40 1
    22   11   41 1
    23   12   13 1
    24   12   42 1
    25   12   43 1
    26   13   14 2
    27   13   15 1
    28   13   16 1
    29   16   44 1
    30   17   18 2
    31   17   19 1
    32   20   21 1
    33   20   45 1
    34   21   22 1
    35   21   46 1
    36   21   47 1
    37   22   33 1
    38   22   23 1
    39   22   48 1
    40   23   24 1
    41   23   49 1
    42   23   50 1
    43   24   29 1
    44   24   25 2
    45   25   26 1
    46   25   32 1
    47   26   27 1
    48   26   56 1
    49   27   28 2
    50   27   31 1
    51   28   29 1
    52   29   30 2
    53   31   51 1
    54   31   52 1
    55   32   33 1
    56   32   53 1
    57   33   54 1
    58   33   55 1
@<TRIPOS>MOLECULE
CHEMBL38902__3
   56    58     0     0     0
SMALL
USER_CHARGES

@<TRIPOS>ATOM
      1 C1         -0.0169    1.3937    0.0097 C.ar      1 <0>        -0.0185
      2 C2          1.1662    2.0965    0.0022 C.ar      1 <0>        -0.2060
      3 C3          2.3811    1.4169   -0.0131 C.ar      1 <0>         0.2232
      4 C4          2.4034    0.0249   -0.0208 C.ar      1 <0>        -0.2009
      5 C5          1.2237   -0.6836   -0.0138 C.ar      1 <0>        -0.0375
      6 C6          0.0021   -0.0041    0.0020 C.ar      1 <0>        -0.1661
      7 C7         -1.2644   -0.7605    0.0105 C.2       1 <0>         0.5531
      8 O1         -2.3263   -0.1682    0.0243 O.2       1 <0>        -0.5638
      9 N1         -1.2445   -2.1081    0.0031 N.am      1 <0>        -0.6792
     10 C8         -2.5022   -2.8593    0.0116 C.3       1 <0>         0.0783
     11 C9         -2.2637   -4.2464    0.6114 C.3       1 <0>        -0.0801
     12 C10        -1.8670   -4.1047    2.0823 C.3       1 <0>        -0.7195
     13 P1         -1.5829   -5.7575    2.7970 P.3       1 <0>         2.2552
     14 O2         -2.8354   -6.6353    2.5786 O.2       1 <0>        -1.0985
     15 O3         -0.3667   -6.4148    2.1071 O.3       1 <0>        -1.1004
     16 O4         -1.2941   -5.6175    4.3747 O.3       1 <0>        -0.9051
     17 C11        -3.0110   -3.0030   -1.3996 C.2       1 <0>         0.4965
     18 O5         -2.3006   -2.6873   -2.3389 O.co2     1 <0>        -0.6949
     19 O6         -4.1331   -3.4348   -1.6021 O.co2     1 <0>        -0.6986
     20 N2          3.5749    2.1299   -0.0211 N.pl3     1 <0>        -0.7478
     21 C12         4.8542    1.4162   -0.0371 C.3       1 <0>         0.1305
     22 C13         6.0023    2.4276   -0.0432 C.3       1 <0>        -0.1131
     23 C14         7.3378    1.6878    0.0473 C.3       1 <0>        -0.0213
     24 C15         8.4790    2.6372   -0.1944 C.2       1 <0>        -0.3897
     25 C16         8.2984    3.8443   -0.8452 C.2       1 <0>         0.4844
     26 N3          9.3461    4.6557   -1.0446 N.2       1 <0>        -0.6233
     27 C17        10.5501    4.3288   -0.6266 C.2       1 <0>         0.6607
     28 N4         10.7791    3.1552    0.0232 N.am      1 <0>        -0.6613
     29 C18         9.7631    2.2967    0.2481 C.2       1 <0>         0.5558
     30 O7          9.9599    1.2405    0.8283 O.2       1 <0>        -0.5468
     31 N5         11.5939    5.1865   -0.8504 N.pl3     1 <0>        -0.8228
     32 N6          7.0480    4.2306   -1.2898 N.pl3     1 <0>        -0.7069
     33 C19         5.9718    3.2327   -1.3491 C.3       1 <0>         0.1281
     34 H1         -0.9590    1.9215    0.0260 H         1 <0>         0.1317
     35 H2          1.1522    3.1764    0.0078 H         1 <0>         0.1193
     36 H3          3.3474   -0.4995   -0.0326 H         1 <0>         0.1244
     37 H4          1.2416   -1.7634   -0.0204 H         1 <0>         0.1278
     38 H5         -0.3974   -2.5806   -0.0078 H         1 <0>         0.3897
     39 H6         -3.2399   -2.3261    0.6112 H         1 <0>         0.0743
     40 H7         -3.1771   -4.8365    0.5367 H         1 <0>         0.0886
     41 H8         -1.4631   -4.7456    0.0656 H         1 <0>         0.0662
     42 H9         -0.9536   -3.5146    2.1570 H         1 <0>         0.0640
     43 H10        -2.6677   -3.6056    2.6281 H         1 <0>         0.0636
     44 H11        -1.1335   -6.4600    4.8214 H         1 <0>         0.4056
     45 H12         3.5606    3.0997   -0.0161 H         1 <0>         0.3950
     46 H13         4.9299    0.7860    0.8490 H         1 <0>         0.0692
     47 H14         4.9126    0.7950   -0.9309 H         1 <0>         0.0667
     48 H15         5.8983    3.1037    0.8054 H         1 <0>         0.0841
     49 H16         7.4394    1.2468    1.0389 H         1 <0>         0.0777
     50 H17         7.3629    0.8958   -0.7011 H         1 <0>         0.0663
     51 H18        11.4417    6.0254   -1.3129 H         1 <0>         0.4274
     52 H19        12.4855    4.9551   -0.5464 H         1 <0>         0.4146
     53 H20         6.8834    5.1480   -1.5586 H         1 <0>         0.4081
     54 H21         6.1330    2.5666   -2.1968 H         1 <0>         0.0732
     55 H22         5.0092    3.7339   -1.4509 H         1 <0>         0.0896
     56 H23        11.6744    2.9354    0.3249 H         1 <0>         0.4092
@<TRIPOS>BOND
     1    1    6 ar
     2    1    2 ar
     3    1   34 1
     4    2    3 ar
     5    2   35 1
     6    3    4 ar
     7    3   20 1
     8    4    5 ar
     9    4   36 1
    10    5    6 ar
    11    5   37 1
    12    6    7 1
    13    7    8 2
    14    7    9 am
    15    9   10 1
    16    9   38 1
    17   10   11 1
    18   10   17 1
    19   10   39 1
    20   11   12 1
    21   11   40 1
    22   11   41 1
    23   12   13 1
    24   12   42 1
    25   12   43 1
    26   13   14 2
    27   13   15 1
    28   13   16 1
    29   16   44 1
    30   17   18 2
    31   17   19 1
    32   20   21 1
    33   20   45 1
    34   21   22 1
    35   21   46 1
    36   21   47 1
    37   22   33 1
    38   22   23 1
    39   22   48 1
    40   23   24 1
    41   23   49 1
    42   23   50 1
    43   24   29 1
    44   24   25 2
    45   25   26 1
    46   25   32 1
    47   26   27 2
    48   27   28 1
    49   27   31 1
    50   28   29 am
    51   28   56 1
    52   29   30 2
    53   31   51 1
    54   31   52 1
    55   32   33 1
    56   32   53 1
    57   33   54 1
    58   33   55 1
@<TRIPOS>MOLECULE
CHEMBL38902__4
   55    57     0     0     0
SMALL
USER_CHARGES

@<TRIPOS>ATOM
      1 C1         -0.0169    1.3937    0.0097 C.ar      1 <0>        -0.0218
      2 C2          1.1662    2.0965    0.0022 C.ar      1 <0>        -0.2069
      3 C3          2.3811    1.4169   -0.0131 C.ar      1 <0>         0.2166
      4 C4          2.4034    0.0249   -0.0208 C.ar      1 <0>        -0.1980
      5 C5          1.2237   -0.6836   -0.0138 C.ar      1 <0>        -0.0364
      6 C6          0.0021   -0.0041    0.0020 C.ar      1 <0>        -0.1580
      7 C7         -1.2644   -0.7605    0.0105 C.2       1 <0>         0.5429
      8 O1         -2.3263   -0.1682    0.0243 O.2       1 <0>        -0.5707
      9 N1         -1.2445   -2.1081    0.0031 N.am      1 <0>        -0.6673
     10 C8         -2.5022   -2.8593    0.0116 C.3       1 <0>         0.0779
     11 C9         -2.2637   -4.2464    0.6114 C.3       1 <0>        -0.0761
     12 C10        -1.8670   -4.1047    2.0823 C.3       1 <0>        -0.7194
     13 P1         -1.5829   -5.7575    2.7970 P.3       1 <0>         2.2262
     14 O2         -2.8529   -6.6476    2.5755 O.2       1 <0>        -1.1884
     15 O3         -0.3496   -6.4240    2.0975 O.3       1 <0>        -1.1893
     16 O4         -1.3019   -5.6213    4.3322 O.3       1 <0>        -1.1969
     17 C11        -3.0110   -3.0030   -1.3996 C.2       1 <0>         0.5022
     18 O5         -2.2242   -3.0459   -2.3300 O.co2     1 <0>        -0.7040
     19 O6         -4.2095   -3.0763   -1.6111 O.co2     1 <0>        -0.7061
     20 N2          3.5749    2.1299   -0.0211 N.pl3     1 <0>        -0.7497
     21 C12         4.8542    1.4162   -0.0371 C.3       1 <0>         0.1305
     22 C13         6.0023    2.4276   -0.0432 C.3       1 <0>        -0.1121
     23 C14         7.3378    1.6878    0.0473 C.3       1 <0>        -0.0234
     24 C15         8.4790    2.6372   -0.1944 C.2       1 <0>        -0.3856
     25 C16         8.2984    3.8443   -0.8452 C.2       1 <0>         0.4818
     26 N3          9.3461    4.6557   -1.0446 N.2       1 <0>        -0.6228
     27 C17        10.5501    4.3288   -0.6266 C.2       1 <0>         0.6583
     28 N4         10.7791    3.1552    0.0232 N.am      1 <0>        -0.6612
     29 C18         9.7631    2.2967    0.2481 C.2       1 <0>         0.5545
     30 O7          9.9599    1.2405    0.8283 O.2       1 <0>        -0.5447
     31 N5         11.5939    5.1865   -0.8504 N.pl3     1 <0>        -0.8244
     32 N6          7.0480    4.2306   -1.2898 N.pl3     1 <0>        -0.7064
     33 C19         5.9718    3.2327   -1.3491 C.3       1 <0>         0.1277
     34 H1         -0.9590    1.9215    0.0260 H         1 <0>         0.1309
     35 H2          1.1522    3.1764    0.0078 H         1 <0>         0.1166
     36 H3          3.3474   -0.4995   -0.0326 H         1 <0>         0.1240
     37 H4          1.2416   -1.7634   -0.0204 H         1 <0>         0.1319
     38 H5         -0.3974   -2.5806   -0.0078 H         1 <0>         0.3920
     39 H6         -3.2399   -2.3261    0.6112 H         1 <0>         0.0696
     40 H7         -3.1771   -4.8365    0.5367 H         1 <0>         0.0734
     41 H8         -1.4631   -4.7456    0.0656 H         1 <0>         0.0582
     42 H9         -0.9536   -3.5146    2.1570 H         1 <0>         0.0387
     43 H10        -2.6677   -3.6056    2.6281 H         1 <0>         0.0383
     44 H11         3.5606    3.0997   -0.0161 H         1 <0>         0.3926
     45 H12         4.9299    0.7860    0.8490 H         1 <0>         0.0698
     46 H13         4.9126    0.7950   -0.9309 H         1 <0>         0.0660
     47 H14         5.8983    3.1037    0.8054 H         1 <0>         0.0836
     48 H15         7.4394    1.2468    1.0389 H         1 <0>         0.0789
     49 H16         7.3629    0.8958   -0.7011 H         1 <0>         0.0673
     50 H17        11.4417    6.0254   -1.3129 H         1 <0>         0.4264
     51 H18        12.4855    4.9551   -0.5464 H         1 <0>         0.4136
     52 H19         6.8834    5.1480   -1.5586 H         1 <0>         0.4071
     53 H20         6.1330    2.5666   -2.1968 H         1 <0>         0.0734
     54 H21         5.0092    3.7339   -1.4509 H         1 <0>         0.0903
     55 H22        11.6744    2.9354    0.3249 H         1 <0>         0.4082
@<TRIPOS>BOND
     1    1    6 ar
     2    1    2 ar
     3    1   34 1
     4    2    3 ar
     5    2   35 1
     6    3    4 ar
     7    3   20 1
     8    4    5 ar
     9    4   36 1
    10    5    6 ar
    11    5   37 1
    12    6    7 1
    13    7    8 2
    14    7    9 am
    15    9   10 1
    16    9   38 1
    17   10   11 1
    18   10   17 1
    19   10   39 1
    20   11   12 1
    21   11   40 1
    22   11   41 1
    23   12   13 1
    24   12   42 1
    25   12   43 1
    26   13   14 2
    27   13   15 1
    28   13   16 1
    29   17   18 2
    30   17   19 1
    31   20   21 1
    32   20   44 1
    33   21   22 1
    34   21   45 1
    35   21   46 1
    36   22   33 1
    37   22   23 1
    38   22   47 1
    39   23   24 1
    40   23   48 1
    41   23   49 1
    42   24   29 1
    43   24   25 2
    44   25   26 1
    45   25   32 1
    46   26   27 2
    47   27   28 1
    48   27   31 1
    49   28   29 am
    50   28   55 1
    51   29   30 2
    52   31   50 1
    53   31   51 1
    54   32   33 1
    55   32   52 1
    56   33   53 1
    57   33   54 1
@<TRIPOS>MOLECULE
CHEMBL38902__5
   56    58     0     0     0
SMALL
USER_CHARGES

@<TRIPOS>ATOM
      1 C1         -0.0169    1.3937    0.0097 C.ar      1 <0>        -0.0185
      2 C2          1.1662    2.0965    0.0022 C.ar      1 <0>        -0.2059
      3 C3          2.3811    1.4169   -0.0131 C.ar      1 <0>         0.2228
      4 C4          2.4034    0.0249   -0.0208 C.ar      1 <0>        -0.2001
      5 C5          1.2237   -0.6836   -0.0138 C.ar      1 <0>        -0.0370
      6 C6          0.0021   -0.0041    0.0020 C.ar      1 <0>        -0.1668
      7 C7         -1.2644   -0.7605    0.0105 C.2       1 <0>         0.5481
      8 O1         -2.3263   -0.1682    0.0243 O.2       1 <0>        -0.5615
      9 N1         -1.2445   -2.1081    0.0031 N.am      1 <0>        -0.6796
     10 C8         -2.5022   -2.8593    0.0116 C.3       1 <0>         0.0792
     11 C9         -2.2637   -4.2464    0.6114 C.3       1 <0>        -0.0814
     12 C10        -1.8670   -4.1047    2.0823 C.3       1 <0>        -0.7192
     13 P1         -1.5829   -5.7575    2.7970 P.3       1 <0>         2.2552
     14 O2         -2.8354   -6.6353    2.5786 O.2       1 <0>        -1.0990
     15 O3         -0.3667   -6.4148    2.1071 O.3       1 <0>        -1.0998
     16 O4         -1.2941   -5.6175    4.3747 O.3       1 <0>        -0.9051
     17 C11        -3.0110   -3.0030   -1.3996 C.2       1 <0>         0.4980
     18 O5         -2.2242   -3.0459   -2.3300 O.co2     1 <0>        -0.6956
     19 O6         -4.2095   -3.0763   -1.6111 O.co2     1 <0>        -0.6991
     20 N2          3.5749    2.1299   -0.0211 N.pl3     1 <0>        -0.7483
     21 C12         4.8542    1.4162   -0.0371 C.3       1 <0>         0.1300
     22 C13         6.0023    2.4276   -0.0432 C.3       1 <0>        -0.1156
     23 C14         7.3382    1.6881    0.0444 C.3       1 <0>        -0.0297
     24 C15         8.4792    2.6356   -0.2067 C.2       1 <0>        -0.3419
     25 C16         8.3028    3.8202   -0.8512 C.2       1 <0>         0.4452
     26 N3          9.3843    4.6383   -1.0581 N.pl3     1 <0>        -0.6543
     27 C17        10.6174    4.2677   -0.6171 C.2       1 <0>         0.6587
     28 N4         10.7999    3.1264    0.0114 N.2       1 <0>        -0.6340
     29 C18         9.7743    2.2909    0.2370 C.2       1 <0>         0.5447
     30 O7          9.9610    1.2346    0.8236 O.2       1 <0>        -0.5248
     31 N5         11.6864    5.0966   -0.8318 N.pl3     1 <0>        -0.8248
     32 N6          7.0618    4.2170   -1.2943 N.pl3     1 <0>        -0.7317
     33 C19         5.9722    3.2331   -1.3493 C.3       1 <0>         0.1331
     34 H1         -0.9590    1.9215    0.0260 H         1 <0>         0.1321
     35 H2          1.1522    3.1764    0.0078 H         1 <0>         0.1191
     36 H3          3.3474   -0.4995   -0.0326 H         1 <0>         0.1252
     37 H4          1.2416   -1.7634   -0.0204 H         1 <0>         0.1290
     38 H5         -0.3974   -2.5806   -0.0078 H         1 <0>         0.3913
     39 H6         -3.2399   -2.3261    0.6112 H         1 <0>         0.0741
     40 H7         -3.1771   -4.8365    0.5367 H         1 <0>         0.0842
     41 H8         -1.4631   -4.7456    0.0656 H         1 <0>         0.0701
     42 H9         -0.9536   -3.5146    2.1570 H         1 <0>         0.0645
     43 H10        -2.6677   -3.6056    2.6281 H         1 <0>         0.0637
     44 H11        -1.1335   -6.4600    4.8214 H         1 <0>         0.4058
     45 H12         3.5606    3.0997   -0.0161 H         1 <0>         0.3942
     46 H13         4.9299    0.7860    0.8490 H         1 <0>         0.0713
     47 H14         4.9126    0.7950   -0.9309 H         1 <0>         0.0677
     48 H15         5.8990    3.1033    0.8058 H         1 <0>         0.0854
     49 H16         7.4441    1.2512    1.0373 H         1 <0>         0.0861
     50 H17         7.3596    0.8927   -0.7006 H         1 <0>         0.0734
     51 H18        11.5610    5.9398   -1.2947 H         1 <0>         0.4091
     52 H19        12.5688    4.8404   -0.5210 H         1 <0>         0.4308
     53 H20         6.9083    5.1352   -1.5666 H         1 <0>         0.4030
     54 H21         6.1198    2.5657   -2.1983 H         1 <0>         0.0761
     55 H22         5.0155    3.7467   -1.4444 H         1 <0>         0.0922
     56 H23         9.2699    5.4834   -1.5202 H         1 <0>         0.4100
@<TRIPOS>BOND
     1    1    6 ar
     2    1    2 ar
     3    1   34 1
     4    2    3 ar
     5    2   35 1
     6    3    4 ar
     7    3   20 1
     8    4    5 ar
     9    4   36 1
    10    5    6 ar
    11    5   37 1
    12    6    7 1
    13    7    8 2
    14    7    9 am
    15    9   10 1
    16    9   38 1
    17   10   11 1
    18   10   17 1
    19   10   39 1
    20   11   12 1
    21   11   40 1
    22   11   41 1
    23   12   13 1
    24   12   42 1
    25   12   43 1
    26   13   14 2
    27   13   15 1
    28   13   16 1
    29   16   44 1
    30   17   18 2
    31   17   19 1
    32   20   21 1
    33   20   45 1
    34   21   22 1
    35   21   46 1
    36   21   47 1
    37   22   33 1
    38   22   23 1
    39   22   48 1
    40   23   24 1
    41   23   49 1
    42   23   50 1
    43   24   29 1
    44   24   25 2
    45   25   26 1
    46   25   32 1
    47   26   27 1
    48   26   56 1
    49   27   28 2
    50   27   31 1
    51   28   29 1
    52   29   30 2
    53   31   51 1
    54   31   52 1
    55   32   33 1
    56   32   53 1
    57   33   54 1
    58   33   55 1
@<TRIPOS>MOLECULE
CHEMBL38902__6
   56    58     0     0     0
SMALL
USER_CHARGES

@<TRIPOS>ATOM
      1 C1         -0.0169    1.3937    0.0097 C.ar      1 <0>        -0.0181
      2 C2          1.1662    2.0965    0.0022 C.ar      1 <0>        -0.2059
      3 C3          2.3811    1.4169   -0.0131 C.ar      1 <0>         0.2240
      4 C4          2.4034    0.0249   -0.0208 C.ar      1 <0>        -0.2010
      5 C5          1.2237   -0.6836   -0.0138 C.ar      1 <0>        -0.0373
      6 C6          0.0021   -0.0041    0.0020 C.ar      1 <0>        -0.1678
      7 C7         -1.2644   -0.7605    0.0105 C.2       1 <0>         0.5483
      8 O1         -2.3263   -0.1682    0.0243 O.2       1 <0>        -0.5612
      9 N1         -1.2445   -2.1081    0.0031 N.am      1 <0>        -0.6799
     10 C8         -2.5022   -2.8593    0.0116 C.3       1 <0>         0.0792
     11 C9         -2.2758   -4.2399   -0.6078 C.3       1 <0>        -0.0813
     12 C10        -1.9084   -4.0824   -2.0846 C.3       1 <0>        -0.7190
     13 P1         -1.6387   -5.7274   -2.8225 P.3       1 <0>         2.2552
     14 O2         -0.5765   -6.4921   -2.0016 O.2       1 <0>        -1.0986
     15 O3         -2.9651   -6.5196   -2.8136 O.3       1 <0>        -1.1003
     16 O4         -1.1251   -5.5576   -4.3390 O.3       1 <0>        -0.9050
     17 C11        -2.9829   -3.0182    1.4310 C.2       1 <0>         0.4980
     18 O5         -4.1770   -3.0939    1.6654 O.co2     1 <0>        -0.6992
     19 O6         -2.1777   -3.0709    2.3450 O.co2     1 <0>        -0.6955
     20 N2          3.5749    2.1299   -0.0211 N.pl3     1 <0>        -0.7476
     21 C12         4.8542    1.4162   -0.0371 C.3       1 <0>         0.1304
     22 C13         6.0023    2.4276   -0.0432 C.3       1 <0>        -0.1131
     23 C14         7.3358    1.6889   -0.1672 C.3       1 <0>        -0.0212
     24 C15         8.4815    2.6359    0.0618 C.2       1 <0>        -0.3899
     25 C16         8.3137    3.8364    0.7281 C.2       1 <0>         0.4845
     26 N3          9.3652    4.6459    0.9152 N.2       1 <0>        -0.6233
     27 C17        10.5608    4.3233    0.4706 C.2       1 <0>         0.6607
     28 N4         10.7769    3.1563   -0.1953 N.am      1 <0>        -0.6613
     29 C18         9.7567    2.3000   -0.4091 C.2       1 <0>         0.5559
     30 O7          9.9423    1.2494   -1.0029 O.2       1 <0>        -0.5469
     31 N5         11.6087    5.1792    0.6819 N.pl3     1 <0>        -0.8227
     32 N6          7.0723    4.2181    1.2008 N.pl3     1 <0>        -0.7069
     33 C19         5.9973    3.2195    1.2710 C.3       1 <0>         0.1281
     34 H1         -0.9590    1.9215    0.0260 H         1 <0>         0.1321
     35 H2          1.1522    3.1764    0.0078 H         1 <0>         0.1196
     36 H3          3.3474   -0.4995   -0.0326 H         1 <0>         0.1247
     37 H4          1.2416   -1.7634   -0.0204 H         1 <0>         0.1281
     38 H5         -0.3974   -2.5806   -0.0078 H         1 <0>         0.3908
     39 H6         -3.2516   -2.3197   -0.5676 H         1 <0>         0.0741
     40 H7         -1.4645   -4.7448   -0.0833 H         1 <0>         0.0729
     41 H8         -3.1876   -4.8309   -0.5212 H         1 <0>         0.0812
     42 H9         -2.7197   -3.5775   -2.6090 H         1 <0>         0.0654
     43 H10        -0.9966   -3.4914   -2.1711 H         1 <0>         0.0628
     44 H11        -0.9607   -6.3946   -4.7945 H         1 <0>         0.4057
     45 H12         3.5606    3.0997   -0.0161 H         1 <0>         0.3951
     46 H13         4.9299    0.7860    0.8490 H         1 <0>         0.0669
     47 H14         4.9126    0.7950   -0.9309 H         1 <0>         0.0693
     48 H15         5.8818    3.1122   -0.8828 H         1 <0>         0.0842
     49 H16         7.3753    0.8893    0.5726 H         1 <0>         0.0663
     50 H17         7.4180    1.2579   -1.1650 H         1 <0>         0.0777
     51 H18        11.4654    6.0137    1.1551 H         1 <0>         0.4274
     52 H19        12.4942    4.9510    0.3583 H         1 <0>         0.4146
     53 H20         6.9132    5.1325    1.4826 H         1 <0>         0.4081
     54 H21         5.0370    3.7195    1.3966 H         1 <0>         0.0896
     55 H22         6.1749    2.5450    2.1086 H         1 <0>         0.0732
     56 H23        11.6661    2.9399   -0.5171 H         1 <0>         0.4092
@<TRIPOS>BOND
     1    1    6 ar
     2    1    2 ar
     3    1   34 1
     4    2    3 ar
     5    2   35 1
     6    3    4 ar
     7    3   20 1
     8    4    5 ar
     9    4   36 1
    10    5    6 ar
    11    5   37 1
    12    6    7 1
    13    7    8 2
    14    7    9 am
    15    9   10 1
    16    9   38 1
    17   10   11 1
    18   10   17 1
    19   10   39 1
    20   11   12 1
    21   11   40 1
    22   11   41 1
    23   12   13 1
    24   12   42 1
    25   12   43 1
    26   13   14 2
    27   13   15 1
    28   13   16 1
    29   16   44 1
    30   17   18 2
    31   17   19 1
    32   20   21 1
    33   20   45 1
    34   21   22 1
    35   21   46 1
    36   21   47 1
    37   22   33 1
    38   22   23 1
    39   22   48 1
    40   23   24 1
    41   23   49 1
    42   23   50 1
    43   24   29 1
    44   24   25 2
    45   25   26 1
    46   25   32 1
    47   26   27 2
    48   27   28 1
    49   27   31 1
    50   28   29 am
    51   28   56 1
    52   29   30 2
    53   31   51 1
    54   31   52 1
    55   32   33 1
    56   32   53 1
    57   33   54 1
    58   33   55 1
@<TRIPOS>MOLECULE
CHEMBL38902__7
   55    57     0     0     0
SMALL
USER_CHARGES

@<TRIPOS>ATOM
      1 C1         -0.0169    1.3937    0.0097 C.ar      1 <0>        -0.0222
      2 C2          1.1662    2.0965    0.0022 C.ar      1 <0>        -0.2066
      3 C3          2.3811    1.4169   -0.0131 C.ar      1 <0>         0.2155
      4 C4          2.4034    0.0249   -0.0208 C.ar      1 <0>        -0.1981
      5 C5          1.2237   -0.6836   -0.0138 C.ar      1 <0>        -0.0374
      6 C6          0.0021   -0.0041    0.0020 C.ar      1 <0>        -0.1553
      7 C7         -1.2644   -0.7605    0.0105 C.2       1 <0>         0.5500
      8 O1         -2.3263   -0.1682    0.0243 O.2       1 <0>        -0.5722
      9 N1         -1.2445   -2.1081    0.0031 N.am      1 <0>        -0.6676
     10 C8         -2.5022   -2.8593    0.0116 C.3       1 <0>         0.0768
     11 C9         -2.2758   -4.2399   -0.6078 C.3       1 <0>        -0.0741
     12 C10        -1.9084   -4.0824   -2.0846 C.3       1 <0>        -0.7203
     13 P1         -1.6387   -5.7274   -2.8225 P.3       1 <0>         2.2267
     14 O2         -0.5616   -6.5029   -1.9901 O.2       1 <0>        -1.1887
     15 O3         -2.9837   -6.5307   -2.8135 O.3       1 <0>        -1.1896
     16 O4         -1.1389   -5.5622   -4.2981 O.3       1 <0>        -1.1972
     17 C11        -2.9829   -3.0182    1.4310 C.2       1 <0>         0.4990
     18 O5         -2.3350   -2.5475    2.3503 O.co2     1 <0>        -0.7049
     19 O6         -4.0198   -3.6173    1.6600 O.co2     1 <0>        -0.7016
     20 N2          3.5749    2.1299   -0.0211 N.pl3     1 <0>        -0.7500
     21 C12         4.8542    1.4162   -0.0371 C.3       1 <0>         0.1307
     22 C13         6.0023    2.4276   -0.0432 C.3       1 <0>        -0.1121
     23 C14         7.3358    1.6889   -0.1672 C.3       1 <0>        -0.0234
     24 C15         8.4815    2.6359    0.0618 C.2       1 <0>        -0.3856
     25 C16         8.3137    3.8364    0.7281 C.2       1 <0>         0.4819
     26 N3          9.3652    4.6459    0.9152 N.2       1 <0>        -0.6228
     27 C17        10.5608    4.3233    0.4706 C.2       1 <0>         0.6583
     28 N4         10.7769    3.1563   -0.1953 N.am      1 <0>        -0.6612
     29 C18         9.7567    2.3000   -0.4091 C.2       1 <0>         0.5545
     30 O7          9.9423    1.2494   -1.0029 O.2       1 <0>        -0.5447
     31 N5         11.6087    5.1792    0.6819 N.pl3     1 <0>        -0.8245
     32 N6          7.0723    4.2181    1.2008 N.pl3     1 <0>        -0.7064
     33 C19         5.9973    3.2195    1.2710 C.3       1 <0>         0.1277
     34 H1         -0.9590    1.9215    0.0260 H         1 <0>         0.1307
     35 H2          1.1522    3.1764    0.0078 H         1 <0>         0.1163
     36 H3          3.3474   -0.4995   -0.0326 H         1 <0>         0.1234
     37 H4          1.2416   -1.7634   -0.0204 H         1 <0>         0.1307
     38 H5         -0.3974   -2.5806   -0.0078 H         1 <0>         0.3897
     39 H6         -3.2516   -2.3197   -0.5676 H         1 <0>         0.0695
     40 H7         -1.4645   -4.7448   -0.0833 H         1 <0>         0.0564
     41 H8         -3.1876   -4.8309   -0.5212 H         1 <0>         0.0766
     42 H9         -2.7197   -3.5775   -2.6090 H         1 <0>         0.0377
     43 H10        -0.9966   -3.4914   -2.1711 H         1 <0>         0.0377
     44 H11         3.5606    3.0997   -0.0161 H         1 <0>         0.3925
     45 H12         4.9299    0.7860    0.8490 H         1 <0>         0.0657
     46 H13         4.9126    0.7950   -0.9309 H         1 <0>         0.0696
     47 H14         5.8818    3.1122   -0.8828 H         1 <0>         0.0836
     48 H15         7.3753    0.8893    0.5726 H         1 <0>         0.0672
     49 H16         7.4180    1.2579   -1.1650 H         1 <0>         0.0789
     50 H17        11.4654    6.0137    1.1551 H         1 <0>         0.4264
     51 H18        12.4942    4.9510    0.3583 H         1 <0>         0.4136
     52 H19         6.9132    5.1325    1.4826 H         1 <0>         0.4071
     53 H20         5.0370    3.7195    1.3966 H         1 <0>         0.0904
     54 H21         6.1749    2.5450    2.1086 H         1 <0>         0.0733
     55 H22        11.6661    2.9399   -0.5171 H         1 <0>         0.4082
@<TRIPOS>BOND
     1    1    6 ar
     2    1    2 ar
     3    1   34 1
     4    2    3 ar
     5    2   35 1
     6    3    4 ar
     7    3   20 1
     8    4    5 ar
     9    4   36 1
    10    5    6 ar
    11    5   37 1
    12    6    7 1
    13    7    8 2
    14    7    9 am
    15    9   10 1
    16    9   38 1
    17   10   11 1
    18   10   17 1
    19   10   39 1
    20   11   12 1
    21   11   40 1
    22   11   41 1
    23   12   13 1
    24   12   42 1
    25   12   43 1
    26   13   14 2
    27   13   15 1
    28   13   16 1
    29   17   18 2
    30   17   19 1
    31   20   21 1
    32   20   44 1
    33   21   22 1
    34   21   45 1
    35   21   46 1
    36   22   33 1
    37   22   23 1
    38   22   47 1
    39   23   24 1
    40   23   48 1
    41   23   49 1
    42   24   29 1
    43   24   25 2
    44   25   26 1
    45   25   32 1
    46   26   27 2
    47   27   28 1
    48   27   31 1
    49   28   29 am
    50   28   55 1
    51   29   30 2
    52   31   50 1
    53   31   51 1
    54   32   33 1
    55   32   52 1
    56   33   53 1
    57   33   54 1
@<TRIPOS>MOLECULE
CHEMBL38902__8
   56    58     0     0     0
SMALL
USER_CHARGES

@<TRIPOS>ATOM
      1 C1         -0.0169    1.3937    0.0097 C.ar      1 <0>        -0.0189
      2 C2          1.1662    2.0965    0.0022 C.ar      1 <0>        -0.2054
      3 C3          2.3811    1.4169   -0.0131 C.ar      1 <0>         0.2217
      4 C4          2.4034    0.0249   -0.0208 C.ar      1 <0>        -0.2002
      5 C5          1.2237   -0.6836   -0.0138 C.ar      1 <0>        -0.0382
      6 C6          0.0021   -0.0041    0.0020 C.ar      1 <0>        -0.1640
      7 C7         -1.2644   -0.7605    0.0105 C.2       1 <0>         0.5549
      8 O1         -2.3263   -0.1682    0.0243 O.2       1 <0>        -0.5626
      9 N1         -1.2445   -2.1081    0.0031 N.am      1 <0>        -0.6799
     10 C8         -2.5022   -2.8593    0.0116 C.3       1 <0>         0.0780
     11 C9         -2.2758   -4.2399   -0.6078 C.3       1 <0>        -0.0794
     12 C10        -1.9084   -4.0824   -2.0846 C.3       1 <0>        -0.7197
     13 P1         -1.6387   -5.7274   -2.8225 P.3       1 <0>         2.2551
     14 O2         -0.5765   -6.4921   -2.0016 O.2       1 <0>        -1.0991
     15 O3         -2.9651   -6.5196   -2.8136 O.3       1 <0>        -1.0998
     16 O4         -1.1251   -5.5576   -4.3390 O.3       1 <0>        -0.9053
     17 C11        -2.9829   -3.0182    1.4310 C.2       1 <0>         0.4954
     18 O5         -2.3350   -2.5475    2.3503 O.co2     1 <0>        -0.6943
     19 O6         -4.0198   -3.6173    1.6600 O.co2     1 <0>        -0.6974
     20 N2          3.5749    2.1299   -0.0211 N.pl3     1 <0>        -0.7486
     21 C12         4.8542    1.4162   -0.0371 C.3       1 <0>         0.1303
     22 C13         6.0023    2.4276   -0.0432 C.3       1 <0>        -0.1156
     23 C14         7.3362    1.6891   -0.1642 C.3       1 <0>        -0.0296
     24 C15         8.4820    2.6342    0.0740 C.2       1 <0>        -0.3420
     25 C16         8.3182    3.8122    0.7338 C.2       1 <0>         0.4453
     26 N3          9.4036    4.6283    0.9278 N.pl3     1 <0>        -0.6542
     27 C17        10.6277    4.2627    0.4584 C.2       1 <0>         0.6586
     28 N4         10.7977    3.1282   -0.1858 N.2       1 <0>        -0.6340
     29 C18         9.7681    2.2941   -0.3982 C.2       1 <0>         0.5448
     30 O7          9.9432    1.2438   -0.9989 O.2       1 <0>        -0.5250
     31 N5         11.7006    5.0899    0.6598 N.pl3     1 <0>        -0.8248
     32 N6          7.0861    4.2044    1.2049 N.pl3     1 <0>        -0.7316
     33 C19         5.9977    3.2199    1.2712 C.3       1 <0>         0.1331
     34 H1         -0.9590    1.9215    0.0260 H         1 <0>         0.1319
     35 H2          1.1522    3.1764    0.0078 H         1 <0>         0.1188
     36 H3          3.3474   -0.4995   -0.0326 H         1 <0>         0.1246
     37 H4          1.2416   -1.7634   -0.0204 H         1 <0>         0.1277
     38 H5         -0.3974   -2.5806   -0.0078 H         1 <0>         0.3887
     39 H6         -3.2516   -2.3197   -0.5676 H         1 <0>         0.0742
     40 H7         -1.4645   -4.7448   -0.0833 H         1 <0>         0.0677
     41 H8         -3.1876   -4.8309   -0.5212 H         1 <0>         0.0879
     42 H9         -2.7197   -3.5775   -2.6090 H         1 <0>         0.0649
     43 H10        -0.9966   -3.4914   -2.1711 H         1 <0>         0.0618
     44 H11        -0.9607   -6.3946   -4.7945 H         1 <0>         0.4057
     45 H12         3.5606    3.0997   -0.0161 H         1 <0>         0.3941
     46 H13         4.9299    0.7860    0.8490 H         1 <0>         0.0675
     47 H14         4.9126    0.7950   -0.9309 H         1 <0>         0.0710
     48 H15         5.8826    3.1118   -0.8832 H         1 <0>         0.0854
     49 H16         7.3720    0.8863    0.5721 H         1 <0>         0.0733
     50 H17         7.4227    1.2623   -1.1635 H         1 <0>         0.0860
     51 H18        11.5844    5.9284    1.1335 H         1 <0>         0.4091
     52 H19        12.5766    4.8373    0.3288 H         1 <0>         0.4308
     53 H20         6.9380    5.1198    1.4894 H         1 <0>         0.4030
     54 H21         5.0431    3.7325    1.3901 H         1 <0>         0.0923
     55 H22         6.1617    2.5440    2.1104 H         1 <0>         0.0761
     56 H23         9.2984    5.4687    1.4006 H         1 <0>         0.4100
@<TRIPOS>BOND
     1    1    6 ar
     2    1    2 ar
     3    1   34 1
     4    2    3 ar
     5    2   35 1
     6    3    4 ar
     7    3   20 1
     8    4    5 ar
     9    4   36 1
    10    5    6 ar
    11    5   37 1
    12    6    7 1
    13    7    8 2
    14    7    9 am
    15    9   10 1
    16    9   38 1
    17   10   11 1
    18   10   17 1
    19   10   39 1
    20   11   12 1
    21   11   40 1
    22   11   41 1
    23   12   13 1
    24   12   42 1
    25   12   43 1
    26   13   14 2
    27   13   15 1
    28   13   16 1
    29   16   44 1
    30   17   18 2
    31   17   19 1
    32   20   21 1
    33   20   45 1
    34   21   22 1
    35   21   46 1
    36   21   47 1
    37   22   33 1
    38   22   23 1
    39   22   48 1
    40   23   24 1
    41   23   49 1
    42   23   50 1
    43   24   29 1
    44   24   25 2
    45   25   26 1
    46   25   32 1
    47   26   27 1
    48   26   56 1
    49   27   28 2
    50   27   31 1
    51   28   29 1
    52   29   30 2
    53   31   51 1
    54   31   52 1
    55   32   33 1
    56   32   53 1
    57   33   54 1
    58   33   55 1
@<TRIPOS>MOLECULE
CHEMBL38902__9
   56    58     0     0     0
SMALL
USER_CHARGES

@<TRIPOS>ATOM
      1 C1         -0.0169    1.3937    0.0097 C.ar      1 <0>        -0.0182
      2 C2          1.1662    2.0965    0.0022 C.ar      1 <0>        -0.2059
      3 C3          2.3811    1.4169   -0.0131 C.ar      1 <0>         0.2240
      4 C4          2.4034    0.0249   -0.0208 C.ar      1 <0>        -0.2010
      5 C5          1.2237   -0.6836   -0.0138 C.ar      1 <0>        -0.0373
      6 C6          0.0021   -0.0041    0.0020 C.ar      1 <0>        -0.1678
      7 C7         -1.2644   -0.7605    0.0105 C.2       1 <0>         0.5483
      8 O1         -2.3263   -0.1682    0.0243 O.2       1 <0>        -0.5612
      9 N1         -1.2445   -2.1081    0.0031 N.am      1 <0>        -0.6799
     10 C8         -2.5022   -2.8593    0.0116 C.3       1 <0>         0.0792
     11 C9         -2.2758   -4.2399   -0.6078 C.3       1 <0>        -0.0814
     12 C10        -1.9084   -4.0824   -2.0846 C.3       1 <0>        -0.7188
     13 P1         -1.6387   -5.7274   -2.8225 P.3       1 <0>         2.2550
     14 O2         -0.5765   -6.4921   -2.0016 O.2       1 <0>        -1.0986
     15 O3         -2.9651   -6.5196   -2.8136 O.3       1 <0>        -1.1002
     16 O4         -1.1251   -5.5576   -4.3390 O.3       1 <0>        -0.9051
     17 C11        -2.9829   -3.0182    1.4310 C.2       1 <0>         0.4978
     18 O5         -4.1770   -3.0939    1.6654 O.co2     1 <0>        -0.6992
     19 O6         -2.1777   -3.0709    2.3450 O.co2     1 <0>        -0.6953
     20 N2          3.5749    2.1299   -0.0211 N.pl3     1 <0>        -0.7476
     21 C12         4.8542    1.4162   -0.0371 C.3       1 <0>         0.1305
     22 C13         6.0023    2.4276   -0.0432 C.3       1 <0>        -0.1133
     23 C14         7.3378    1.6878    0.0473 C.3       1 <0>        -0.0213
     24 C15         8.4790    2.6372   -0.1944 C.2       1 <0>        -0.3897
     25 C16         8.2984    3.8443   -0.8452 C.2       1 <0>         0.4844
     26 N3          9.3461    4.6557   -1.0446 N.2       1 <0>        -0.6234
     27 C17        10.5501    4.3288   -0.6266 C.2       1 <0>         0.6608
     28 N4         10.7791    3.1552    0.0232 N.am      1 <0>        -0.6613
     29 C18         9.7631    2.2967    0.2481 C.2       1 <0>         0.5558
     30 O7          9.9599    1.2405    0.8283 O.2       1 <0>        -0.5468
     31 N5         11.5939    5.1865   -0.8504 N.pl3     1 <0>        -0.8227
     32 N6          7.0480    4.2306   -1.2898 N.pl3     1 <0>        -0.7071
     33 C19         5.9718    3.2327   -1.3491 C.3       1 <0>         0.1283
     34 H1         -0.9590    1.9215    0.0260 H         1 <0>         0.1321
     35 H2          1.1522    3.1764    0.0078 H         1 <0>         0.1196
     36 H3          3.3474   -0.4995   -0.0326 H         1 <0>         0.1247
     37 H4          1.2416   -1.7634   -0.0204 H         1 <0>         0.1281
     38 H5         -0.3974   -2.5806   -0.0078 H         1 <0>         0.3908
     39 H6         -3.2516   -2.3197   -0.5676 H         1 <0>         0.0741
     40 H7         -1.4645   -4.7448   -0.0833 H         1 <0>         0.0729
     41 H8         -3.1876   -4.8309   -0.5212 H         1 <0>         0.0812
     42 H9         -2.7197   -3.5775   -2.6090 H         1 <0>         0.0653
     43 H10        -0.9966   -3.4914   -2.1711 H         1 <0>         0.0627
     44 H11        -0.9607   -6.3946   -4.7945 H         1 <0>         0.4056
     45 H12         3.5606    3.0997   -0.0161 H         1 <0>         0.3951
     46 H13         4.9299    0.7860    0.8490 H         1 <0>         0.0696
     47 H14         4.9126    0.7950   -0.9309 H         1 <0>         0.0666
     48 H15         5.8983    3.1037    0.8054 H         1 <0>         0.0844
     49 H16         7.4394    1.2468    1.0389 H         1 <0>         0.0778
     50 H17         7.3629    0.8958   -0.7011 H         1 <0>         0.0663
     51 H18        11.4417    6.0254   -1.3129 H         1 <0>         0.4274
     52 H19        12.4855    4.9551   -0.5464 H         1 <0>         0.4146
     53 H20         6.8834    5.1480   -1.5586 H         1 <0>         0.4081
     54 H21         6.1330    2.5666   -2.1968 H         1 <0>         0.0730
     55 H22         5.0092    3.7339   -1.4509 H         1 <0>         0.0894
     56 H23        11.6744    2.9354    0.3249 H         1 <0>         0.4093
@<TRIPOS>BOND
     1    1    6 ar
     2    1    2 ar
     3    1   34 1
     4    2    3 ar
     5    2   35 1
     6    3    4 ar
     7    3   20 1
     8    4    5 ar
     9    4   36 1
    10    5    6 ar
    11    5   37 1
    12    6    7 1
    13    7    8 2
    14    7    9 am
    15    9   10 1
    16    9   38 1
    17   10   11 1
    18   10   17 1
    19   10   39 1
    20   11   12 1
    21   11   40 1
    22   11   41 1
    23   12   13 1
    24   12   42 1
    25   12   43 1
    26   13   14 2
    27   13   15 1
    28   13   16 1
    29   16   44 1
    30   17   18 2
    31   17   19 1
    32   20   21 1
    33   20   45 1
    34   21   22 1
    35   21   46 1
    36   21   47 1
    37   22   33 1
    38   22   23 1
    39   22   48 1
    40   23   24 1
    41   23   49 1
    42   23   50 1
    43   24   29 1
    44   24   25 2
    45   25   26 1
    46   25   32 1
    47   26   27 2
    48   27   28 1
    49   27   31 1
    50   28   29 am
    51   28   56 1
    52   29   30 2
    53   31   51 1
    54   31   52 1
    55   32   33 1
    56   32   53 1
    57   33   54 1
    58   33   55 1
@<TRIPOS>MOLECULE
CHEMBL38902__10
   55    57     0     0     0
SMALL
USER_CHARGES

@<TRIPOS>ATOM
      1 C1         -0.0169    1.3937    0.0097 C.ar      1 <0>        -0.0222
      2 C2          1.1662    2.0965    0.0022 C.ar      1 <0>        -0.2066
      3 C3          2.3811    1.4169   -0.0131 C.ar      1 <0>         0.2155
      4 C4          2.4034    0.0249   -0.0208 C.ar      1 <0>        -0.1981
      5 C5          1.2237   -0.6836   -0.0138 C.ar      1 <0>        -0.0374
      6 C6          0.0021   -0.0041    0.0020 C.ar      1 <0>        -0.1553
      7 C7         -1.2644   -0.7605    0.0105 C.2       1 <0>         0.5500
      8 O1         -2.3263   -0.1682    0.0243 O.2       1 <0>        -0.5722
      9 N1         -1.2445   -2.1081    0.0031 N.am      1 <0>        -0.6676
     10 C8         -2.5022   -2.8593    0.0116 C.3       1 <0>         0.0768
     11 C9         -2.2758   -4.2399   -0.6078 C.3       1 <0>        -0.0742
     12 C10        -1.9084   -4.0824   -2.0846 C.3       1 <0>        -0.7201
     13 P1         -1.6387   -5.7274   -2.8225 P.3       1 <0>         2.2267
     14 O2         -0.5616   -6.5029   -1.9901 O.2       1 <0>        -1.1887
     15 O3         -2.9837   -6.5307   -2.8135 O.3       1 <0>        -1.1895
     16 O4         -1.1389   -5.5622   -4.2981 O.3       1 <0>        -1.1974
     17 C11        -2.9829   -3.0182    1.4310 C.2       1 <0>         0.4989
     18 O5         -2.3350   -2.5475    2.3503 O.co2     1 <0>        -0.7046
     19 O6         -4.0198   -3.6173    1.6600 O.co2     1 <0>        -0.7017
     20 N2          3.5749    2.1299   -0.0211 N.pl3     1 <0>        -0.7500
     21 C12         4.8542    1.4162   -0.0371 C.3       1 <0>         0.1306
     22 C13         6.0023    2.4276   -0.0432 C.3       1 <0>        -0.1116
     23 C14         7.3378    1.6878    0.0473 C.3       1 <0>        -0.0232
     24 C15         8.4790    2.6372   -0.1944 C.2       1 <0>        -0.3862
     25 C16         8.2984    3.8443   -0.8452 C.2       1 <0>         0.4824
     26 N3          9.3461    4.6557   -1.0446 N.2       1 <0>        -0.6225
     27 C17        10.5501    4.3288   -0.6266 C.2       1 <0>         0.6583
     28 N4         10.7791    3.1552    0.0232 N.am      1 <0>        -0.6613
     29 C18         9.7631    2.2967    0.2481 C.2       1 <0>         0.5549
     30 O7          9.9599    1.2405    0.8283 O.2       1 <0>        -0.5462
     31 N5         11.5939    5.1865   -0.8504 N.pl3     1 <0>        -0.8244
     32 N6          7.0480    4.2306   -1.2898 N.pl3     1 <0>        -0.7060
     33 C19         5.9718    3.2327   -1.3491 C.3       1 <0>         0.1269
     34 H1         -0.9590    1.9215    0.0260 H         1 <0>         0.1307
     35 H2          1.1522    3.1764    0.0078 H         1 <0>         0.1163
     36 H3          3.3474   -0.4995   -0.0326 H         1 <0>         0.1234
     37 H4          1.2416   -1.7634   -0.0204 H         1 <0>         0.1307
     38 H5         -0.3974   -2.5806   -0.0078 H         1 <0>         0.3897
     39 H6         -3.2516   -2.3197   -0.5676 H         1 <0>         0.0695
     40 H7         -1.4645   -4.7448   -0.0833 H         1 <0>         0.0564
     41 H8         -3.1876   -4.8309   -0.5212 H         1 <0>         0.0766
     42 H9         -2.7197   -3.5775   -2.6090 H         1 <0>         0.0377
     43 H10        -0.9966   -3.4914   -2.1711 H         1 <0>         0.0376
     44 H11         3.5606    3.0997   -0.0161 H         1 <0>         0.3925
     45 H12         4.9299    0.7860    0.8490 H         1 <0>         0.0685
     46 H13         4.9126    0.7950   -0.9309 H         1 <0>         0.0668
     47 H14         5.8983    3.1037    0.8054 H         1 <0>         0.0830
     48 H15         7.4394    1.2468    1.0389 H         1 <0>         0.0779
     49 H16         7.3629    0.8958   -0.7011 H         1 <0>         0.0679
     50 H17        11.4417    6.0254   -1.3129 H         1 <0>         0.4265
     51 H18        12.4855    4.9551   -0.5464 H         1 <0>         0.4136
     52 H19         6.8834    5.1480   -1.5586 H         1 <0>         0.4072
     53 H20         6.1330    2.5666   -2.1968 H         1 <0>         0.0745
     54 H21         5.0092    3.7339   -1.4509 H         1 <0>         0.0907
     55 H22        11.6744    2.9354    0.3249 H         1 <0>         0.4081
@<TRIPOS>BOND
     1    1    6 ar
     2    1    2 ar
     3    1   34 1
     4    2    3 ar
     5    2   35 1
     6    3    4 ar
     7    3   20 1
     8    4    5 ar
     9    4   36 1
    10    5    6 ar
    11    5   37 1
    12    6    7 1
    13    7    8 2
    14    7    9 am
    15    9   10 1
    16    9   38 1
    17   10   11 1
    18   10   17 1
    19   10   39 1
    20   11   12 1
    21   11   40 1
    22   11   41 1
    23   12   13 1
    24   12   42 1
    25   12   43 1
    26   13   14 2
    27   13   15 1
    28   13   16 1
    29   17   18 2
    30   17   19 1
    31   20   21 1
    32   20   44 1
    33   21   22 1
    34   21   45 1
    35   21   46 1
    36   22   33 1
    37   22   23 1
    38   22   47 1
    39   23   24 1
    40   23   48 1
    41   23   49 1
    42   24   29 1
    43   24   25 2
    44   25   26 1
    45   25   32 1
    46   26   27 2
    47   27   28 1
    48   27   31 1
    49   28   29 am
    50   28   55 1
    51   29   30 2
    52   31   50 1
    53   31   51 1
    54   32   33 1
    55   32   52 1
    56   33   53 1
    57   33   54 1
@<TRIPOS>MOLECULE
CHEMBL38902__11
   56    58     0     0     0
SMALL
USER_CHARGES

@<TRIPOS>ATOM
      1 C1         -0.0169    1.3937    0.0097 C.ar      1 <0>        -0.0189
      2 C2          1.1662    2.0965    0.0022 C.ar      1 <0>        -0.2054
      3 C3          2.3811    1.4169   -0.0131 C.ar      1 <0>         0.2217
      4 C4          2.4034    0.0249   -0.0208 C.ar      1 <0>        -0.2002
      5 C5          1.2237   -0.6836   -0.0138 C.ar      1 <0>        -0.0382
      6 C6          0.0021   -0.0041    0.0020 C.ar      1 <0>        -0.1640
      7 C7         -1.2644   -0.7605    0.0105 C.2       1 <0>         0.5549
      8 O1         -2.3263   -0.1682    0.0243 O.2       1 <0>        -0.5626
      9 N1         -1.2445   -2.1081    0.0031 N.am      1 <0>        -0.6799
     10 C8         -2.5022   -2.8593    0.0116 C.3       1 <0>         0.0781
     11 C9         -2.2758   -4.2399   -0.6078 C.3       1 <0>        -0.0795
     12 C10        -1.9084   -4.0824   -2.0846 C.3       1 <0>        -0.7194
     13 P1         -1.6387   -5.7274   -2.8225 P.3       1 <0>         2.2547
     14 O2         -0.5765   -6.4921   -2.0016 O.2       1 <0>        -1.0990
     15 O3         -2.9651   -6.5196   -2.8136 O.3       1 <0>        -1.0995
     16 O4         -1.1251   -5.5576   -4.3390 O.3       1 <0>        -0.9054
     17 C11        -2.9829   -3.0182    1.4310 C.2       1 <0>         0.4951
     18 O5         -2.3350   -2.5475    2.3503 O.co2     1 <0>        -0.6938
     19 O6         -4.0198   -3.6173    1.6600 O.co2     1 <0>        -0.6975
     20 N2          3.5749    2.1299   -0.0211 N.pl3     1 <0>        -0.7486
     21 C12         4.8542    1.4162   -0.0371 C.3       1 <0>         0.1303
     22 C13         6.0023    2.4276   -0.0432 C.3       1 <0>        -0.1157
     23 C14         7.3382    1.6881    0.0444 C.3       1 <0>        -0.0297
     24 C15         8.4792    2.6356   -0.2067 C.2       1 <0>        -0.3418
     25 C16         8.3028    3.8202   -0.8512 C.2       1 <0>         0.4451
     26 N3          9.3843    4.6383   -1.0581 N.pl3     1 <0>        -0.6542
     27 C17        10.6174    4.2677   -0.6171 C.2       1 <0>         0.6587
     28 N4         10.7999    3.1264    0.0114 N.2       1 <0>        -0.6340
     29 C18         9.7743    2.2909    0.2370 C.2       1 <0>         0.5448
     30 O7          9.9610    1.2346    0.8236 O.2       1 <0>        -0.5249
     31 N5         11.6864    5.0966   -0.8318 N.pl3     1 <0>        -0.8247
     32 N6          7.0618    4.2170   -1.2943 N.pl3     1 <0>        -0.7317
     33 C19         5.9722    3.2331   -1.3493 C.3       1 <0>         0.1333
     34 H1         -0.9590    1.9215    0.0260 H         1 <0>         0.1319
     35 H2          1.1522    3.1764    0.0078 H         1 <0>         0.1188
     36 H3          3.3474   -0.4995   -0.0326 H         1 <0>         0.1246
     37 H4          1.2416   -1.7634   -0.0204 H         1 <0>         0.1277
     38 H5         -0.3974   -2.5806   -0.0078 H         1 <0>         0.3887
     39 H6         -3.2516   -2.3197   -0.5676 H         1 <0>         0.0741
     40 H7         -1.4645   -4.7448   -0.0833 H         1 <0>         0.0678
     41 H8         -3.1876   -4.8309   -0.5212 H         1 <0>         0.0880
     42 H9         -2.7197   -3.5775   -2.6090 H         1 <0>         0.0648
     43 H10        -0.9966   -3.4914   -2.1711 H         1 <0>         0.0616
     44 H11        -0.9607   -6.3946   -4.7945 H         1 <0>         0.4056
     45 H12         3.5606    3.0997   -0.0161 H         1 <0>         0.3941
     46 H13         4.9299    0.7860    0.8490 H         1 <0>         0.0712
     47 H14         4.9126    0.7950   -0.9309 H         1 <0>         0.0672
     48 H15         5.8990    3.1033    0.8058 H         1 <0>         0.0856
     49 H16         7.4441    1.2512    1.0373 H         1 <0>         0.0861
     50 H17         7.3596    0.8927   -0.7006 H         1 <0>         0.0733
     51 H18        11.5610    5.9398   -1.2947 H         1 <0>         0.4091
     52 H19        12.5688    4.8404   -0.5210 H         1 <0>         0.4309
     53 H20         6.9083    5.1352   -1.5666 H         1 <0>         0.4030
     54 H21         6.1198    2.5657   -2.1983 H         1 <0>         0.0758
     55 H22         5.0155    3.7467   -1.4444 H         1 <0>         0.0921
     56 H23         9.2699    5.4834   -1.5202 H         1 <0>         0.4100
@<TRIPOS>BOND
     1    1    6 ar
     2    1    2 ar
     3    1   34 1
     4    2    3 ar
     5    2   35 1
     6    3    4 ar
     7    3   20 1
     8    4    5 ar
     9    4   36 1
    10    5    6 ar
    11    5   37 1
    12    6    7 1
    13    7    8 2
    14    7    9 am
    15    9   10 1
    16    9   38 1
    17   10   11 1
    18   10   17 1
    19   10   39 1
    20   11   12 1
    21   11   40 1
    22   11   41 1
    23   12   13 1
    24   12   42 1
    25   12   43 1
    26   13   14 2
    27   13   15 1
    28   13   16 1
    29   16   44 1
    30   17   18 2
    31   17   19 1
    32   20   21 1
    33   20   45 1
    34   21   22 1
    35   21   46 1
    36   21   47 1
    37   22   33 1
    38   22   23 1
    39   22   48 1
    40   23   24 1
    41   23   49 1
    42   23   50 1
    43   24   29 1
    44   24   25 2
    45   25   26 1
    46   25   32 1
    47   26   27 1
    48   26   56 1
    49   27   28 2
    50   27   31 1
    51   28   29 1
    52   29   30 2
    53   31   51 1
    54   31   52 1
    55   32   33 1
    56   32   53 1
    57   33   54 1
    58   33   55 1
@<TRIPOS>MOLECULE
CHEMBL326511
   52    54     0     0     0
SMALL
USER_CHARGES

@<TRIPOS>ATOM
      1 C1         -0.0167    1.3794    0.0096 C.ar      1 <0>        -0.1263
      2 C2          1.1667    2.0884    0.0021 C.ar      1 <0>        -0.0631
      3 C3          2.3848    1.4070   -0.0132 C.ar      1 <0>        -0.1088
      4 C4          2.3966    0.0113   -0.0208 C.ar      1 <0>        -0.0827
      5 C5          1.2061   -0.6856   -0.0132 C.ar      1 <0>        -0.1283
      6 C6          0.0021   -0.0041    0.0020 C.ar      1 <0>        -0.0773
      7 C7         -1.2946   -0.7719    0.0103 C.3       1 <0>        -0.0699
      8 C8         -1.7472   -1.0241   -1.4293 C.3       1 <0>        -0.0986
      9 C9         -3.1146   -1.7092   -1.4244 C.3       1 <0>        -0.0199
     10 C10        -3.4697   -2.1777   -2.8087 C.2       1 <0>        -0.3967
     11 C11        -2.5079   -2.3628   -3.7854 C.2       1 <0>         0.4880
     12 N1         -2.8702   -2.7885   -5.0034 N.2       1 <0>        -0.6204
     13 C12        -4.1306   -3.0303   -5.2935 C.2       1 <0>         0.6589
     14 N2         -5.1148   -2.8587   -4.3694 N.am      1 <0>        -0.6624
     15 C13        -4.8090   -2.4364   -3.1254 C.2       1 <0>         0.5563
     16 O1         -5.6853   -2.2827   -2.2892 O.2       1 <0>        -0.5565
     17 N3         -4.4586   -3.4630   -6.5507 N.pl3     1 <0>        -0.8235
     18 N4         -1.1745   -2.1092   -3.5252 N.pl3     1 <0>        -0.7017
     19 C14        -0.7383   -1.9415   -2.1326 C.3       1 <0>         0.1218
     20 C15         3.6569    2.1603   -0.0218 C.2       1 <0>         0.5473
     21 O2          3.6435    3.3757   -0.0155 O.2       1 <0>        -0.5553
     22 N5          4.8314    1.4994   -0.0366 N.am      1 <0>        -0.6744
     23 C16         6.0919    2.2459   -0.0451 C.3       1 <0>         0.0725
     24 H1          5.9699    3.1583   -0.6287 H         1 <0>         0.0782
     25 C17         7.1909    1.3839   -0.6698 C.3       1 <0>        -0.0811
     26 C18         6.8626    1.1271   -2.1419 C.3       1 <0>        -0.1772
     27 C19         7.9450    0.2781   -2.7573 C.2       1 <0>         0.4909
     28 O3          8.8913   -0.0876   -2.0810 O.co2     1 <0>        -0.6971
     29 O4          7.8745   -0.0430   -3.9313 O.co2     1 <0>        -0.7200
     30 C20         6.4748    2.6012    1.3685 C.2       1 <0>         0.4970
     31 O5          5.8674    2.1124    2.3058 O.co2     1 <0>        -0.6977
     32 O6          7.3921    3.3775    1.5748 O.co2     1 <0>        -0.7008
     33 H2         -0.9598    1.9054    0.0260 H         1 <0>         0.1222
     34 H3          1.1508    3.1682    0.0077 H         1 <0>         0.1329
     35 H4          3.3358   -0.5219   -0.0330 H         1 <0>         0.1289
     36 H5          1.2138   -1.7656   -0.0191 H         1 <0>         0.1243
     37 H6         -1.1489   -1.7256    0.5176 H         1 <0>         0.0760
     38 H7         -2.0557   -0.1941    0.5345 H         1 <0>         0.0787
     39 H8         -1.8129   -0.0760   -1.9631 H         1 <0>         0.0814
     40 H9         -3.0868   -2.5650   -0.7500 H         1 <0>         0.0597
     41 H10        -3.8700   -1.0042   -1.0774 H         1 <0>         0.0717
     42 H11        -3.7648   -3.5884   -7.2169 H         1 <0>         0.4281
     43 H12        -5.3848   -3.6442   -6.7749 H         1 <0>         0.4133
     44 H13        -0.5355   -2.0431   -4.2520 H         1 <0>         0.4108
     45 H14         0.2523   -1.4874   -2.1085 H         1 <0>         0.0983
     46 H15        -0.7124   -2.9111   -1.6352 H         1 <0>         0.0693
     47 H16         4.8421    0.5294   -0.0416 H         1 <0>         0.3898
     48 H17         8.1462    1.9034   -0.5958 H         1 <0>         0.0771
     49 H18         7.2523    0.4333   -0.1400 H         1 <0>         0.0565
     50 H19         5.9072    0.6076   -2.2159 H         1 <0>         0.0502
     51 H20         6.8012    2.0777   -2.6717 H         1 <0>         0.0525
     52 H21        -6.0379   -3.0400   -4.6059 H         1 <0>         0.4071
@<TRIPOS>BOND
     1    1    6 ar
     2    1    2 ar
     3    1   33 1
     4    2    3 ar
     5    2   34 1
     6    3    4 ar
     7    3   20 1
     8    4    5 ar
     9    4   35 1
    10    5    6 ar
    11    5   36 1
    12    6    7 1
    13    7    8 1
    14    7   37 1
    15    7   38 1
    16    8   19 1
    17    8    9 1
    18    8   39 1
    19    9   10 1
    20    9   40 1
    21    9   41 1
    22   10   15 1
    23   10   11 2
    24   11   12 1
    25   11   18 1
    26   12   13 2
    27   13   14 1
    28   13   17 1
    29   14   15 am
    30   14   52 1
    31   15   16 2
    32   17   42 1
    33   17   43 1
    34   18   19 1
    35   18   44 1
    36   19   45 1
    37   19   46 1
    38   20   21 2
    39   20   22 am
    40   22   23 1
    41   22   47 1
    42   23   24 1
    43   23   25 1
    44   23   30 1
    45   25   26 1
    46   25   48 1
    47   25   49 1
    48   26   27 1
    49   26   50 1
    50   26   51 1
    51   27   28 2
    52   27   29 1
    53   30   31 2
    54   30   32 1
@<TRIPOS>MOLECULE
CHEMBL326511__1
   52    54     0     0     0
SMALL
USER_CHARGES

@<TRIPOS>ATOM
      1 C1         -0.0167    1.3794    0.0096 C.ar      1 <0>        -0.1259
      2 C2          1.1667    2.0884    0.0021 C.ar      1 <0>        -0.0628
      3 C3          2.3848    1.4070   -0.0132 C.ar      1 <0>        -0.1083
      4 C4          2.3966    0.0113   -0.0208 C.ar      1 <0>        -0.0831
      5 C5          1.2061   -0.6856   -0.0132 C.ar      1 <0>        -0.1293
      6 C6          0.0021   -0.0041    0.0020 C.ar      1 <0>        -0.0781
      7 C7         -1.2946   -0.7719    0.0103 C.3       1 <0>        -0.0703
      8 C8         -1.7472   -1.0241   -1.4293 C.3       1 <0>        -0.1011
      9 C9         -3.1133   -1.7118   -1.4249 C.3       1 <0>        -0.0280
     10 C10        -3.4645   -2.1888   -2.8076 C.2       1 <0>        -0.3520
     11 C11        -2.5182   -2.3760   -3.7665 C.2       1 <0>         0.4513
     12 N1         -2.8997   -2.8211   -5.0067 N.pl3     1 <0>        -0.6540
     13 C12        -4.2119   -3.0656   -5.2726 C.2       1 <0>         0.6596
     14 N2         -5.1369   -2.8834   -4.3550 N.2       1 <0>        -0.6379
     15 C13        -4.8143   -2.4523   -3.1258 C.2       1 <0>         0.5468
     16 O1         -5.6863   -2.2880   -2.2847 O.2       1 <0>        -0.5353
     17 N3         -4.5755   -3.5086   -6.5166 N.pl3     1 <0>        -0.8252
     18 N4         -1.1883   -2.1224   -3.5200 N.pl3     1 <0>        -0.7275
     19 C14        -0.7383   -1.9418   -2.1332 C.3       1 <0>         0.1271
     20 C15         3.6569    2.1603   -0.0218 C.2       1 <0>         0.5468
     21 O2          3.6435    3.3757   -0.0155 O.2       1 <0>        -0.5546
     22 N5          4.8314    1.4994   -0.0366 N.am      1 <0>        -0.6743
     23 C16         6.0919    2.2459   -0.0451 C.3       1 <0>         0.0724
     24 H1          5.9699    3.1583   -0.6287 H         1 <0>         0.0783
     25 C17         7.1909    1.3839   -0.6698 C.3       1 <0>        -0.0813
     26 C18         6.8626    1.1271   -2.1419 C.3       1 <0>        -0.1769
     27 C19         7.9450    0.2781   -2.7573 C.2       1 <0>         0.4909
     28 O3          8.8913   -0.0876   -2.0810 O.co2     1 <0>        -0.6964
     29 O4          7.8745   -0.0430   -3.9313 O.co2     1 <0>        -0.7205
     30 C20         6.4748    2.6012    1.3685 C.2       1 <0>         0.4968
     31 O5          5.8674    2.1124    2.3058 O.co2     1 <0>        -0.6975
     32 O6          7.3921    3.3775    1.5748 O.co2     1 <0>        -0.7003
     33 H2         -0.9598    1.9054    0.0260 H         1 <0>         0.1230
     34 H3          1.1508    3.1682    0.0077 H         1 <0>         0.1334
     35 H4          3.3358   -0.5219   -0.0330 H         1 <0>         0.1289
     36 H5          1.2138   -1.7656   -0.0191 H         1 <0>         0.1238
     37 H6         -1.1489   -1.7256    0.5176 H         1 <0>         0.0768
     38 H7         -2.0557   -0.1941    0.5345 H         1 <0>         0.0807
     39 H8         -1.8138   -0.0761   -1.9631 H         1 <0>         0.0826
     40 H9         -3.0858   -2.5638   -0.7456 H         1 <0>         0.0664
     41 H10        -3.8710   -1.0064   -1.0835 H         1 <0>         0.0798
     42 H11        -3.9002   -3.6454   -7.1993 H         1 <0>         0.4098
     43 H12        -5.5084   -3.6855   -6.7149 H         1 <0>         0.4297
     44 H13        -0.5558   -2.0634   -4.2530 H         1 <0>         0.4056
     45 H14         0.2496   -1.4813   -2.1227 H         1 <0>         0.1008
     46 H15        -0.7020   -2.9069   -1.6280 H         1 <0>         0.0721
     47 H16         4.8421    0.5294   -0.0416 H         1 <0>         0.3896
     48 H17         8.1462    1.9034   -0.5958 H         1 <0>         0.0774
     49 H18         7.2523    0.4333   -0.1400 H         1 <0>         0.0566
     50 H19         5.9072    0.6076   -2.2159 H         1 <0>         0.0497
     51 H20         6.8012    2.0777   -2.6717 H         1 <0>         0.0525
     52 H21        -2.2323   -2.9616   -5.6963 H         1 <0>         0.4116
@<TRIPOS>BOND
     1    1    6 ar
     2    1    2 ar
     3    1   33 1
     4    2    3 ar
     5    2   34 1
     6    3    4 ar
     7    3   20 1
     8    4    5 ar
     9    4   35 1
    10    5    6 ar
    11    5   36 1
    12    6    7 1
    13    7    8 1
    14    7   37 1
    15    7   38 1
    16    8   19 1
    17    8    9 1
    18    8   39 1
    19    9   10 1
    20    9   40 1
    21    9   41 1
    22   10   15 1
    23   10   11 2
    24   11   12 1
    25   11   18 1
    26   12   13 1
    27   12   52 1
    28   13   14 2
    29   13   17 1
    30   14   15 1
    31   15   16 2
    32   17   42 1
    33   17   43 1
    34   18   19 1
    35   18   44 1
    36   19   45 1
    37   19   46 1
    38   20   21 2
    39   20   22 am
    40   22   23 1
    41   22   47 1
    42   23   24 1
    43   23   25 1
    44   23   30 1
    45   25   26 1
    46   25   48 1
    47   25   49 1
    48   26   27 1
    49   26   50 1
    50   26   51 1
    51   27   28 2
    52   27   29 1
    53   30   31 2
    54   30   32 1
@<TRIPOS>MOLECULE
CHEMBL326511__2
   52    54     0     0     0
SMALL
USER_CHARGES

@<TRIPOS>ATOM
      1 C1         -0.0167    1.3794    0.0096 C.ar      1 <0>        -0.1328
      2 C2          1.1667    2.0884    0.0021 C.ar      1 <0>        -0.0641
      3 C3          2.3848    1.4070   -0.0132 C.ar      1 <0>        -0.1089
      4 C4          2.3966    0.0113   -0.0208 C.ar      1 <0>        -0.0816
      5 C5          1.2061   -0.6856   -0.0132 C.ar      1 <0>        -0.1217
      6 C6          0.0021   -0.0041    0.0020 C.ar      1 <0>        -0.0775
      7 C7         -1.2946   -0.7719    0.0103 C.3       1 <0>        -0.0697
      8 C8         -1.7472   -1.0241   -1.4293 C.3       1 <0>        -0.0998
      9 C9         -3.0053   -1.8937   -1.4265 C.3       1 <0>        -0.0203
     10 C10        -3.6003   -1.9572   -2.8063 C.2       1 <0>        -0.3950
     11 C11        -3.3095   -1.0090   -3.7705 C.2       1 <0>         0.4872
     12 N1         -3.8687   -1.1021   -4.9848 N.2       1 <0>        -0.6213
     13 C12        -4.6897   -2.0862   -5.2831 C.2       1 <0>         0.6591
     14 N2         -5.0035   -3.0467   -4.3715 N.am      1 <0>        -0.6621
     15 C13        -4.4742   -3.0019   -3.1316 C.2       1 <0>         0.5561
     16 O1         -4.7521   -3.8582   -2.3068 O.2       1 <0>        -0.5549
     17 N3         -5.2396   -2.1447   -6.5358 N.pl3     1 <0>        -0.8235
     18 N4         -2.4434    0.0339   -3.5016 N.pl3     1 <0>        -0.7028
     19 C14        -2.0732    0.3130   -2.1077 C.3       1 <0>         0.1233
     20 C15         3.6569    2.1603   -0.0218 C.2       1 <0>         0.5474
     21 O2          3.6435    3.3757   -0.0155 O.2       1 <0>        -0.5559
     22 N5          4.8314    1.4994   -0.0366 N.am      1 <0>        -0.6744
     23 C16         6.0919    2.2459   -0.0451 C.3       1 <0>         0.0726
     24 H1          5.9699    3.1583   -0.6287 H         1 <0>         0.0783
     25 C17         7.1909    1.3839   -0.6698 C.3       1 <0>        -0.0813
     26 C18         6.8626    1.1271   -2.1419 C.3       1 <0>        -0.1773
     27 C19         7.9450    0.2781   -2.7573 C.2       1 <0>         0.4910
     28 O3          8.8913   -0.0876   -2.0810 O.co2     1 <0>        -0.6972
     29 O4          7.8745   -0.0430   -3.9313 O.co2     1 <0>        -0.7199
     30 C20         6.4748    2.6012    1.3685 C.2       1 <0>         0.4971
     31 O5          5.8674    2.1124    2.3058 O.co2     1 <0>        -0.6976
     32 O6          7.3921    3.3775    1.5748 O.co2     1 <0>        -0.7008
     33 H2         -0.9598    1.9054    0.0260 H         1 <0>         0.1224
     34 H3          1.1508    3.1682    0.0077 H         1 <0>         0.1332
     35 H4          3.3358   -0.5219   -0.0330 H         1 <0>         0.1287
     36 H5          1.2138   -1.7656   -0.0191 H         1 <0>         0.1241
     37 H6         -1.1489   -1.7256    0.5176 H         1 <0>         0.0797
     38 H7         -2.0557   -0.1941    0.5345 H         1 <0>         0.0750
     39 H8         -0.9527   -1.5287   -1.9791 H         1 <0>         0.0829
     40 H9         -2.7471   -2.9005   -1.0983 H         1 <0>         0.0727
     41 H10        -3.7358   -1.4690   -0.7379 H         1 <0>         0.0593
     42 H11        -5.0228   -1.4649   -7.1930 H         1 <0>         0.4277
     43 H12        -5.8460   -2.8659   -6.7661 H         1 <0>         0.4135
     44 H13        -2.0848    0.5739   -4.2232 H         1 <0>         0.4097
     45 H14        -2.9060    0.7936   -1.5943 H         1 <0>         0.0679
     46 H15        -1.1985    0.9628   -2.0815 H         1 <0>         0.0972
     47 H16         4.8421    0.5294   -0.0416 H         1 <0>         0.3901
     48 H17         8.1462    1.9034   -0.5958 H         1 <0>         0.0772
     49 H18         7.2523    0.4333   -0.1400 H         1 <0>         0.0566
     50 H19         5.9072    0.6076   -2.2159 H         1 <0>         0.0503
     51 H20         6.8012    2.0777   -2.6717 H         1 <0>         0.0525
     52 H21        -5.6091   -3.7647   -4.6137 H         1 <0>         0.4074
@<TRIPOS>BOND
     1    1    6 ar
     2    1    2 ar
     3    1   33 1
     4    2    3 ar
     5    2   34 1
     6    3    4 ar
     7    3   20 1
     8    4    5 ar
     9    4   35 1
    10    5    6 ar
    11    5   36 1
    12    6    7 1
    13    7    8 1
    14    7   37 1
    15    7   38 1
    16    8   19 1
    17    8    9 1
    18    8   39 1
    19    9   10 1
    20    9   40 1
    21    9   41 1
    22   10   15 1
    23   10   11 2
    24   11   12 1
    25   11   18 1
    26   12   13 2
    27   13   14 1
    28   13   17 1
    29   14   15 am
    30   14   52 1
    31   15   16 2
    32   17   42 1
    33   17   43 1
    34   18   19 1
    35   18   44 1
    36   19   45 1
    37   19   46 1
    38   20   21 2
    39   20   22 am
    40   22   23 1
    41   22   47 1
    42   23   24 1
    43   23   25 1
    44   23   30 1
    45   25   26 1
    46   25   48 1
    47   25   49 1
    48   26   27 1
    49   26   50 1
    50   26   51 1
    51   27   28 2
    52   27   29 1
    53   30   31 2
    54   30   32 1
@<TRIPOS>MOLECULE
CHEMBL326511__3
   52    54     0     0     0
SMALL
USER_CHARGES

@<TRIPOS>ATOM
      1 C1         -0.0167    1.3794    0.0096 C.ar      1 <0>        -0.1337
      2 C2          1.1667    2.0884    0.0021 C.ar      1 <0>        -0.0645
      3 C3          2.3848    1.4070   -0.0132 C.ar      1 <0>        -0.1084
      4 C4          2.3966    0.0113   -0.0208 C.ar      1 <0>        -0.0814
      5 C5          1.2061   -0.6856   -0.0132 C.ar      1 <0>        -0.1212
      6 C6          0.0021   -0.0041    0.0020 C.ar      1 <0>        -0.0783
      7 C7         -1.2946   -0.7719    0.0103 C.3       1 <0>        -0.0701
      8 C8         -1.7472   -1.0241   -1.4293 C.3       1 <0>        -0.1022
      9 C9         -3.0070   -1.8913   -1.4269 C.3       1 <0>        -0.0285
     10 C10        -3.6075   -1.9473   -2.8049 C.2       1 <0>        -0.3498
     11 C11        -3.3258   -1.0120   -3.7514 C.2       1 <0>         0.4498
     12 N1         -3.9115   -1.1123   -4.9878 N.pl3     1 <0>        -0.6540
     13 C12        -4.7602   -2.1403   -5.2621 C.2       1 <0>         0.6593
     14 N2         -5.0370   -3.0535   -4.3563 N.2       1 <0>        -0.6371
     15 C13        -4.4907   -2.9989   -3.1318 C.2       1 <0>         0.5464
     16 O1         -4.7577   -3.8561   -2.3020 O.2       1 <0>        -0.5335
     17 N3         -5.3361   -2.2254   -6.5019 N.pl3     1 <0>        -0.8252
     18 N4         -2.4617    0.0280   -3.4962 N.pl3     1 <0>        -0.7283
     19 C14        -2.0735    0.3131   -2.1083 C.3       1 <0>         0.1285
     20 C15         3.6569    2.1603   -0.0218 C.2       1 <0>         0.5470
     21 O2          3.6435    3.3757   -0.0155 O.2       1 <0>        -0.5559
     22 N5          4.8314    1.4994   -0.0366 N.am      1 <0>        -0.6740
     23 C16         6.0919    2.2459   -0.0451 C.3       1 <0>         0.0726
     24 H1          5.9699    3.1583   -0.6287 H         1 <0>         0.0782
     25 C17         7.1909    1.3839   -0.6698 C.3       1 <0>        -0.0815
     26 C18         6.8626    1.1271   -2.1419 C.3       1 <0>        -0.1771
     27 C19         7.9450    0.2781   -2.7573 C.2       1 <0>         0.4909
     28 O3          8.8913   -0.0876   -2.0810 O.co2     1 <0>        -0.6966
     29 O4          7.8745   -0.0430   -3.9313 O.co2     1 <0>        -0.7201
     30 C20         6.4748    2.6012    1.3685 C.2       1 <0>         0.4969
     31 O5          5.8674    2.1124    2.3058 O.co2     1 <0>        -0.6974
     32 O6          7.3921    3.3775    1.5748 O.co2     1 <0>        -0.7004
     33 H2         -0.9598    1.9054    0.0260 H         1 <0>         0.1220
     34 H3          1.1508    3.1682    0.0077 H         1 <0>         0.1331
     35 H4          3.3358   -0.5219   -0.0330 H         1 <0>         0.1291
     36 H5          1.2138   -1.7656   -0.0191 H         1 <0>         0.1248
     37 H6         -1.1489   -1.7256    0.5176 H         1 <0>         0.0817
     38 H7         -2.0557   -0.1941    0.5345 H         1 <0>         0.0759
     39 H8         -0.9533   -1.5294   -1.9792 H         1 <0>         0.0841
     40 H9         -2.7496   -2.9002   -1.1044 H         1 <0>         0.0809
     41 H10        -3.7343   -1.4687   -0.7336 H         1 <0>         0.0661
     42 H11        -5.1380   -1.5564   -7.1757 H         1 <0>         0.4095
     43 H12        -5.9422   -2.9547   -6.7060 H         1 <0>         0.4299
     44 H13        -2.1128    0.5662   -4.2240 H         1 <0>         0.4045
     45 H14        -2.8973    0.8006   -1.5871 H         1 <0>         0.0707
     46 H15        -1.1946    0.9577   -2.0958 H         1 <0>         0.0998
     47 H16         4.8421    0.5294   -0.0416 H         1 <0>         0.3902
     48 H17         8.1462    1.9034   -0.5958 H         1 <0>         0.0775
     49 H18         7.2523    0.4333   -0.1400 H         1 <0>         0.0568
     50 H19         5.9072    0.6076   -2.2159 H         1 <0>         0.0499
     51 H20         6.8012    2.0777   -2.6717 H         1 <0>         0.0522
     52 H21        -3.7205   -0.4483   -5.6686 H         1 <0>         0.4109
@<TRIPOS>BOND
     1    1    6 ar
     2    1    2 ar
     3    1   33 1
     4    2    3 ar
     5    2   34 1
     6    3    4 ar
     7    3   20 1
     8    4    5 ar
     9    4   35 1
    10    5    6 ar
    11    5   36 1
    12    6    7 1
    13    7    8 1
    14    7   37 1
    15    7   38 1
    16    8   19 1
    17    8    9 1
    18    8   39 1
    19    9   10 1
    20    9   40 1
    21    9   41 1
    22   10   15 1
    23   10   11 2
    24   11   12 1
    25   11   18 1
    26   12   13 1
    27   12   52 1
    28   13   14 2
    29   13   17 1
    30   14   15 1
    31   15   16 2
    32   17   42 1
    33   17   43 1
    34   18   19 1
    35   18   44 1
    36   19   45 1
    37   19   46 1
    38   20   21 2
    39   20   22 am
    40   22   23 1
    41   22   47 1
    42   23   24 1
    43   23   25 1
    44   23   30 1
    45   25   26 1
    46   25   48 1
    47   25   49 1
    48   26   27 1
    49   26   50 1
    50   26   51 1
    51   27   28 2
    52   27   29 1
    53   30   31 2
    54   30   32 1
@<TRIPOS>MOLECULE
CHEMBL85436
   50    52     0     0     0
SMALL
USER_CHARGES

@<TRIPOS>ATOM
      1 C1         -0.0163    1.3517    0.0095 C.2       1 <0>        -0.1714
      2 C2          1.1755    2.0360    0.0018 C.2       1 <0>        -0.0962
      3 C3          2.3196    1.2528   -0.0134 C.2       1 <0>        -0.2050
      4 S1          1.6361   -0.3937   -0.0157 S.3       1 <0>         0.2034
      5 C4          0.0021   -0.0041    0.0020 C.2       1 <0>        -0.2202
      6 C5         -1.1743   -0.9460    0.0089 C.3       1 <0>        -0.0308
      7 C6         -1.5870   -1.2570   -1.4311 C.3       1 <0>        -0.0940
      8 C7         -2.7813   -2.2133   -1.4241 C.3       1 <0>        -0.1052
      9 C8         -3.1550   -2.5921   -2.8659 C.3       1 <0>         0.1261
     10 N1         -4.2305   -3.5783   -2.8299 N.pl3     1 <0>        -0.7076
     11 C9         -5.4197   -3.3755   -2.1616 C.2       1 <0>         0.4827
     12 C10        -5.5656   -2.4349   -1.1561 C.2       1 <0>        -0.3940
     13 C11        -6.8036   -2.3051   -0.5110 C.2       1 <0>         0.5751
     14 N2         -7.8238   -3.1005   -0.8954 N.am      1 <0>        -0.6565
     15 C12        -7.6384   -4.0018   -1.8984 C.2       1 <0>         0.6605
     16 N3         -6.4808   -4.1292   -2.5042 N.2       1 <0>        -0.6147
     17 N4         -8.6873   -4.7971   -2.2856 N.pl3     1 <0>        -0.8224
     18 O1         -6.9560   -1.4869    0.3833 O.2       1 <0>        -0.5299
     19 S2         -4.2251   -1.3929   -0.6820 S.3       1 <0>        -0.0472
     20 C13         3.7248    1.6700   -0.0245 C.2       1 <0>         0.5920
     21 O2          4.0082    2.8535   -0.0209 O.2       1 <0>        -0.5425
     22 N5          4.7028    0.7428   -0.0389 N.am      1 <0>        -0.6721
     23 C14         6.1072    1.1597   -0.0500 C.3       1 <0>         0.0727
     24 H1          6.2104    2.0733   -0.6356 H         1 <0>         0.0804
     25 C15         6.9623    0.0548   -0.6738 C.3       1 <0>        -0.0815
     26 C16         6.5794   -0.1171   -2.1451 C.3       1 <0>        -0.1782
     27 C17         7.4215   -1.2054   -2.7595 C.2       1 <0>         0.4914
     28 O3          8.2511   -1.7893   -2.0832 O.co2     1 <0>        -0.6971
     29 O4          7.2733   -1.5018   -3.9328 O.co2     1 <0>        -0.7199
     30 C18         6.5671    1.4138    1.3624 C.2       1 <0>         0.4971
     31 O5          5.8601    1.0895    2.3013 O.co2     1 <0>        -0.6966
     32 O6          7.6460    1.9436    1.5663 O.co2     1 <0>        -0.6994
     33 H2         -0.9545    1.8864    0.0258 H         1 <0>         0.1296
     34 H3          1.2182    3.1151    0.0068 H         1 <0>         0.1449
     35 H4         -0.8964   -1.8705    0.5150 H         1 <0>         0.0803
     36 H5         -2.0089   -0.4811    0.5338 H         1 <0>         0.0892
     37 H6         -1.8648   -0.3325   -1.9372 H         1 <0>         0.0829
     38 H7         -0.7524   -1.7219   -1.9560 H         1 <0>         0.0881
     39 H8         -2.5334   -3.1106   -0.8571 H         1 <0>         0.1010
     40 H9         -3.4912   -1.7043   -3.4014 H         1 <0>         0.0836
     41 H10        -2.2863   -3.0172   -3.3687 H         1 <0>         0.1068
     42 H11        -4.1024   -4.4177   -3.2988 H         1 <0>         0.4093
     43 H12        -9.5478   -4.7131   -1.8458 H         1 <0>         0.4147
     44 H13        -8.5684   -5.4434   -2.9991 H         1 <0>         0.4278
     45 H14         4.4769   -0.2005   -0.0418 H         1 <0>         0.3899
     46 H15         8.0155    0.3261   -0.6018 H         1 <0>         0.0785
     47 H16         6.7909   -0.8811   -0.1420 H         1 <0>         0.0574
     48 H17         5.5261   -0.3884   -2.2171 H         1 <0>         0.0506
     49 H18         6.7507    0.8188   -2.6769 H         1 <0>         0.0532
     50 H19        -8.6867   -3.0304   -0.4579 H         1 <0>         0.4131
@<TRIPOS>BOND
     1    1    5 2
     2    1    2 1
     3    1   33 1
     4    2    3 2
     5    2   34 1
     6    3    4 1
     7    3   20 1
     8    4    5 1
     9    5    6 1
    10    6    7 1
    11    6   35 1
    12    6   36 1
    13    7    8 1
    14    7   37 1
    15    7   38 1
    16    8   19 1
    17    8    9 1
    18    8   39 1
    19    9   10 1
    20    9   40 1
    21    9   41 1
    22   10   11 1
    23   10   42 1
    24   11   16 1
    25   11   12 2
    26   12   13 1
    27   12   19 1
    28   13   14 am
    29   13   18 2
    30   14   15 1
    31   14   50 1
    32   15   16 2
    33   15   17 1
    34   17   43 1
    35   17   44 1
    36   20   21 2
    37   20   22 am
    38   22   23 1
    39   22   45 1
    40   23   24 1
    41   23   25 1
    42   23   30 1
    43   25   26 1
    44   25   46 1
    45   25   47 1
    46   26   27 1
    47   26   48 1
    48   26   49 1
    49   27   28 2
    50   27   29 1
    51   30   31 2
    52   30   32 1
@<TRIPOS>MOLECULE
CHEMBL85436__1
   50    52     0     0     0
SMALL
USER_CHARGES

@<TRIPOS>ATOM
      1 C1         -0.0163    1.3517    0.0095 C.2       1 <0>        -0.1709
      2 C2          1.1755    2.0360    0.0018 C.2       1 <0>        -0.0951
      3 C3          2.3196    1.2528   -0.0134 C.2       1 <0>        -0.2069
      4 S1          1.6361   -0.3937   -0.0157 S.3       1 <0>         0.2047
      5 C4          0.0021   -0.0041    0.0020 C.2       1 <0>        -0.2207
      6 C5         -1.1743   -0.9460    0.0089 C.3       1 <0>        -0.0313
      7 C6         -1.5870   -1.2570   -1.4311 C.3       1 <0>        -0.0942
      8 C7         -2.7813   -2.2133   -1.4241 C.3       1 <0>        -0.1129
      9 C8         -3.1568   -2.5908   -2.8663 C.3       1 <0>         0.1309
     10 N1         -4.2441   -3.5640   -2.8270 N.pl3     1 <0>        -0.7313
     11 C9         -5.4250   -3.3514   -2.1582 C.2       1 <0>         0.4386
     12 C10        -5.5674   -2.4304   -1.1646 C.2       1 <0>        -0.3445
     13 C11        -6.8154   -2.2986   -0.5161 C.2       1 <0>         0.5612
     14 N2         -7.8459   -3.0694   -0.8955 N.2       1 <0>        -0.6252
     15 C12        -7.7059   -3.9483   -1.8645 C.2       1 <0>         0.6608
     16 N3         -6.5216   -4.1095   -2.5088 N.pl3     1 <0>        -0.6490
     17 N4         -8.7795   -4.7186   -2.2317 N.pl3     1 <0>        -0.8236
     18 O1         -6.9557   -1.4860    0.3874 O.2       1 <0>        -0.5093
     19 S2         -4.2255   -1.3933   -0.6820 S.3       1 <0>        -0.0296
     20 C13         3.7248    1.6700   -0.0245 C.2       1 <0>         0.5872
     21 O2          4.0082    2.8535   -0.0209 O.2       1 <0>        -0.5397
     22 N5          4.7028    0.7428   -0.0389 N.am      1 <0>        -0.6728
     23 C14         6.1072    1.1597   -0.0500 C.3       1 <0>         0.0736
     24 H1          6.2104    2.0733   -0.6356 H         1 <0>         0.0801
     25 C15         6.9623    0.0548   -0.6738 C.3       1 <0>        -0.0828
     26 C16         6.5794   -0.1171   -2.1451 C.3       1 <0>        -0.1778
     27 C17         7.4215   -1.2054   -2.7595 C.2       1 <0>         0.4915
     28 O3          8.2511   -1.7893   -2.0832 O.co2     1 <0>        -0.6970
     29 O4          7.2733   -1.5018   -3.9328 O.co2     1 <0>        -0.7198
     30 C18         6.5671    1.4138    1.3624 C.2       1 <0>         0.4982
     31 O5          6.0720    0.7906    2.2861 O.co2     1 <0>        -0.6972
     32 O6          7.4341    2.2425    1.5815 O.co2     1 <0>        -0.6994
     33 H2         -0.9545    1.8864    0.0258 H         1 <0>         0.1303
     34 H3          1.2182    3.1151    0.0068 H         1 <0>         0.1456
     35 H4         -0.8964   -1.8705    0.5150 H         1 <0>         0.0810
     36 H5         -2.0089   -0.4811    0.5338 H         1 <0>         0.0899
     37 H6         -1.8648   -0.3325   -1.9372 H         1 <0>         0.0836
     38 H7         -0.7524   -1.7219   -1.9560 H         1 <0>         0.0884
     39 H8         -2.5335   -3.1110   -0.8578 H         1 <0>         0.1031
     40 H9         -3.4822   -1.7004   -3.4044 H         1 <0>         0.0861
     41 H10        -2.2927   -3.0279   -3.3666 H         1 <0>         0.1094
     42 H11        -4.1269   -4.4040   -3.2977 H         1 <0>         0.4036
     43 H12        -9.6305   -4.6121   -1.7785 H         1 <0>         0.4312
     44 H13        -8.6879   -5.3698   -2.9447 H         1 <0>         0.4098
     45 H14         4.4769   -0.2005   -0.0418 H         1 <0>         0.3912
     46 H15         8.0155    0.3261   -0.6018 H         1 <0>         0.0743
     47 H16         6.7909   -0.8811   -0.1420 H         1 <0>         0.0611
     48 H17         5.5261   -0.3884   -2.2171 H         1 <0>         0.0509
     49 H18         6.7507    0.8188   -2.6769 H         1 <0>         0.0534
     50 H19        -6.4466   -4.7633   -3.2214 H         1 <0>         0.4116
@<TRIPOS>BOND
     1    1    5 2
     2    1    2 1
     3    1   33 1
     4    2    3 2
     5    2   34 1
     6    3    4 1
     7    3   20 1
     8    4    5 1
     9    5    6 1
    10    6    7 1
    11    6   35 1
    12    6   36 1
    13    7    8 1
    14    7   37 1
    15    7   38 1
    16    8   19 1
    17    8    9 1
    18    8   39 1
    19    9   10 1
    20    9   40 1
    21    9   41 1
    22   10   11 1
    23   10   42 1
    24   11   16 1
    25   11   12 2
    26   12   13 1
    27   12   19 1
    28   13   14 1
    29   13   18 2
    30   14   15 2
    31   15   16 1
    32   15   17 1
    33   16   50 1
    34   17   43 1
    35   17   44 1
    36   20   21 2
    37   20   22 am
    38   22   23 1
    39   22   45 1
    40   23   24 1
    41   23   25 1
    42   23   30 1
    43   25   26 1
    44   25   46 1
    45   25   47 1
    46   26   27 1
    47   26   48 1
    48   26   49 1
    49   27   28 2
    50   27   29 1
    51   30   31 2
    52   30   32 1
@<TRIPOS>MOLECULE
CHEMBL85436__2
   50    52     0     0     0
SMALL
USER_CHARGES

@<TRIPOS>ATOM
      1 C1         -0.0163    1.3517    0.0095 C.2       1 <0>        -0.1740
      2 C2          1.1755    2.0360    0.0018 C.2       1 <0>        -0.0983
      3 C3          2.3196    1.2528   -0.0134 C.2       1 <0>        -0.2066
      4 S1          1.6361   -0.3937   -0.0157 S.3       1 <0>         0.2143
      5 C4          0.0021   -0.0041    0.0020 C.2       1 <0>        -0.2218
      6 C5         -1.1743   -0.9460    0.0089 C.3       1 <0>        -0.0306
      7 C6         -1.5870   -1.2570   -1.4311 C.3       1 <0>        -0.0943
      8 C7         -2.7813   -2.2133   -1.4241 C.3       1 <0>        -0.1065
      9 C8         -3.2517   -2.4714   -2.8643 C.3       1 <0>         0.1264
     10 N1         -4.4487   -3.3058   -2.8262 N.pl3     1 <0>        -0.7090
     11 C9         -4.5023   -4.5213   -2.1771 C.2       1 <0>         0.4799
     12 C10        -3.6033   -4.8858   -1.1892 C.2       1 <0>        -0.3917
     13 C11        -3.7390   -6.1328   -0.5626 C.2       1 <0>         0.5741
     14 N2         -4.7434   -6.9479   -0.9473 N.am      1 <0>        -0.6560
     15 C12        -5.5954   -6.5535   -1.9328 C.2       1 <0>         0.6602
     16 N3         -5.4744   -5.3862   -2.5212 N.2       1 <0>        -0.6155
     17 N4         -6.6055   -7.3970   -2.3213 N.pl3     1 <0>        -0.8228
     18 O1         -2.9623   -6.4750    0.3160 O.2       1 <0>        -0.5252
     19 S2         -2.2870   -3.8136   -0.7147 S.3       1 <0>        -0.0400
     20 C13         3.7248    1.6700   -0.0245 C.2       1 <0>         0.5919
     21 O2          4.0082    2.8535   -0.0209 O.2       1 <0>        -0.5436
     22 N5          4.7028    0.7428   -0.0389 N.am      1 <0>        -0.6717
     23 C14         6.1072    1.1597   -0.0500 C.3       1 <0>         0.0729
     24 H1          6.2104    2.0733   -0.6356 H         1 <0>         0.0802
     25 C15         6.9623    0.0548   -0.6738 C.3       1 <0>        -0.0819
     26 C16         6.5794   -0.1171   -2.1451 C.3       1 <0>        -0.1783
     27 C17         7.4215   -1.2054   -2.7595 C.2       1 <0>         0.4916
     28 O3          8.2511   -1.7893   -2.0832 O.co2     1 <0>        -0.6970
     29 O4          7.2733   -1.5018   -3.9328 O.co2     1 <0>        -0.7199
     30 C18         6.5671    1.4138    1.3624 C.2       1 <0>         0.4972
     31 O5          5.8601    1.0895    2.3013 O.co2     1 <0>        -0.6964
     32 O6          7.6460    1.9436    1.5663 O.co2     1 <0>        -0.6996
     33 H2         -0.9545    1.8864    0.0258 H         1 <0>         0.1272
     34 H3          1.2182    3.1151    0.0068 H         1 <0>         0.1441
     35 H4         -0.8964   -1.8705    0.5150 H         1 <0>         0.0858
     36 H5         -2.0089   -0.4811    0.5338 H         1 <0>         0.0832
     37 H6         -1.8648   -0.3325   -1.9372 H         1 <0>         0.0856
     38 H7         -0.7524   -1.7219   -1.9560 H         1 <0>         0.0848
     39 H8         -3.5950   -1.7847   -0.8392 H         1 <0>         0.0987
     40 H9         -3.4830   -1.5226   -3.3486 H         1 <0>         0.1035
     41 H10        -2.4660   -2.9847   -3.4187 H         1 <0>         0.0852
     42 H11        -5.2459   -2.9896   -3.2796 H         1 <0>         0.4077
     43 H12        -6.7056   -8.2624   -1.8948 H         1 <0>         0.4148
     44 H13        -7.2194   -7.1279   -3.0225 H         1 <0>         0.4272
     45 H14         4.4769   -0.2005   -0.0418 H         1 <0>         0.3904
     46 H15         8.0155    0.3261   -0.6018 H         1 <0>         0.0785
     47 H16         6.7909   -0.8811   -0.1420 H         1 <0>         0.0579
     48 H17         5.5261   -0.3884   -2.2171 H         1 <0>         0.0508
     49 H18         6.7507    0.8188   -2.6769 H         1 <0>         0.0528
     50 H19        -4.8577   -7.8126   -0.5229 H         1 <0>         0.4135
@<TRIPOS>BOND
     1    1    5 2
     2    1    2 1
     3    1   33 1
     4    2    3 2
     5    2   34 1
     6    3    4 1
     7    3   20 1
     8    4    5 1
     9    5    6 1
    10    6    7 1
    11    6   35 1
    12    6   36 1
    13    7    8 1
    14    7   37 1
    15    7   38 1
    16    8   19 1
    17    8    9 1
    18    8   39 1
    19    9   10 1
    20    9   40 1
    21    9   41 1
    22   10   11 1
    23   10   42 1
    24   11   16 1
    25   11   12 2
    26   12   13 1
    27   12   19 1
    28   13   14 am
    29   13   18 2
    30   14   15 1
    31   14   50 1
    32   15   16 2
    33   15   17 1
    34   17   43 1
    35   17   44 1
    36   20   21 2
    37   20   22 am
    38   22   23 1
    39   22   45 1
    40   23   24 1
    41   23   25 1
    42   23   30 1
    43   25   26 1
    44   25   46 1
    45   25   47 1
    46   26   27 1
    47   26   48 1
    48   26   49 1
    49   27   28 2
    50   27   29 1
    51   30   31 2
    52   30   32 1
@<TRIPOS>MOLECULE
CHEMBL85436__3
   50    52     0     0     0
SMALL
USER_CHARGES

@<TRIPOS>ATOM
      1 C1         -0.0163    1.3517    0.0095 C.2       1 <0>        -0.1739
      2 C2          1.1755    2.0360    0.0018 C.2       1 <0>        -0.0977
      3 C3          2.3196    1.2528   -0.0134 C.2       1 <0>        -0.2086
      4 S1          1.6361   -0.3937   -0.0157 S.3       1 <0>         0.2180
      5 C4          0.0021   -0.0041    0.0020 C.2       1 <0>        -0.2227
      6 C5         -1.1743   -0.9460    0.0089 C.3       1 <0>        -0.0312
      7 C6         -1.5870   -1.2570   -1.4311 C.3       1 <0>        -0.0945
      8 C7         -2.7813   -2.2133   -1.4241 C.3       1 <0>        -0.1144
      9 C8         -3.2507   -2.4734   -2.8647 C.3       1 <0>         0.1311
     10 N1         -4.4378   -3.3222   -2.8238 N.pl3     1 <0>        -0.7325
     11 C9         -4.4799   -4.5319   -2.1741 C.2       1 <0>         0.4348
     12 C10        -3.5993   -4.8885   -1.1978 C.2       1 <0>        -0.3413
     13 C11        -3.7354   -6.1455   -0.5680 C.2       1 <0>         0.5595
     14 N2         -4.7179   -6.9763   -0.9482 N.2       1 <0>        -0.6234
     15 C12        -5.5575   -6.6315   -1.9007 C.2       1 <0>         0.6597
     16 N3         -5.4641   -5.4302   -2.5266 N.pl3     1 <0>        -0.6490
     17 N4         -6.5488   -7.5047   -2.2693 N.pl3     1 <0>        -0.8241
     18 O1         -2.9608   -6.4752    0.3195 O.2       1 <0>        -0.5044
     19 S2         -2.2875   -3.8138   -0.7147 S.3       1 <0>        -0.0218
     20 C13         3.7248    1.6700   -0.0245 C.2       1 <0>         0.5870
     21 O2          4.0082    2.8535   -0.0209 O.2       1 <0>        -0.5413
     22 N5          4.7028    0.7428   -0.0389 N.am      1 <0>        -0.6721
     23 C14         6.1072    1.1597   -0.0500 C.3       1 <0>         0.0739
     24 H1          6.2104    2.0733   -0.6356 H         1 <0>         0.0799
     25 C15         6.9623    0.0548   -0.6738 C.3       1 <0>        -0.0833
     26 C16         6.5794   -0.1171   -2.1451 C.3       1 <0>        -0.1779
     27 C17         7.4215   -1.2054   -2.7595 C.2       1 <0>         0.4917
     28 O3          8.2511   -1.7893   -2.0832 O.co2     1 <0>        -0.6969
     29 O4          7.2733   -1.5018   -3.9328 O.co2     1 <0>        -0.7197
     30 C18         6.5671    1.4138    1.3624 C.2       1 <0>         0.4982
     31 O5          6.0720    0.7906    2.2861 O.co2     1 <0>        -0.6965
     32 O6          7.4341    2.2425    1.5815 O.co2     1 <0>        -0.6999
     33 H2         -0.9545    1.8864    0.0258 H         1 <0>         0.1272
     34 H3          1.2182    3.1151    0.0068 H         1 <0>         0.1445
     35 H4         -0.8964   -1.8705    0.5150 H         1 <0>         0.0866
     36 H5         -2.0089   -0.4811    0.5338 H         1 <0>         0.0838
     37 H6         -1.8648   -0.3325   -1.9372 H         1 <0>         0.0859
     38 H7         -0.7524   -1.7219   -1.9560 H         1 <0>         0.0855
     39 H8         -3.5955   -1.7846   -0.8399 H         1 <0>         0.1008
     40 H9         -3.4947   -1.5266   -3.3464 H         1 <0>         0.1061
     41 H10        -2.4604   -2.9767   -3.4216 H         1 <0>         0.0878
     42 H11        -5.2380   -3.0161   -3.2785 H         1 <0>         0.4019
     43 H12        -6.6252   -8.3656   -1.8291 H         1 <0>         0.4313
     44 H13        -7.1736   -7.2612   -2.9703 H         1 <0>         0.4092
     45 H14         4.4769   -0.2005   -0.0418 H         1 <0>         0.3920
     46 H15         8.0155    0.3261   -0.6018 H         1 <0>         0.0742
     47 H16         6.7909   -0.8811   -0.1420 H         1 <0>         0.0618
     48 H17         5.5261   -0.3884   -2.2171 H         1 <0>         0.0512
     49 H18         6.7507    0.8188   -2.6769 H         1 <0>         0.0529
     50 H19        -6.0950   -5.2024   -3.2273 H         1 <0>         0.4106
@<TRIPOS>BOND
     1    1    5 2
     2    1    2 1
     3    1   33 1
     4    2    3 2
     5    2   34 1
     6    3    4 1
     7    3   20 1
     8    4    5 1
     9    5    6 1
    10    6    7 1
    11    6   35 1
    12    6   36 1
    13    7    8 1
    14    7   37 1
    15    7   38 1
    16    8   19 1
    17    8    9 1
    18    8   39 1
    19    9   10 1
    20    9   40 1
    21    9   41 1
    22   10   11 1
    23   10   42 1
    24   11   16 1
    25   11   12 2
    26   12   13 1
    27   12   19 1
    28   13   14 1
    29   13   18 2
    30   14   15 2
    31   15   16 1
    32   15   17 1
    33   16   50 1
    34   17   43 1
    35   17   44 1
    36   20   21 2
    37   20   22 am
    38   22   23 1
    39   22   45 1
    40   23   24 1
    41   23   25 1
    42   23   30 1
    43   25   26 1
    44   25   46 1
    45   25   47 1
    46   26   27 1
    47   26   48 1
    48   26   49 1
    49   27   28 2
    50   27   29 1
    51   30   31 2
    52   30   32 1
@<TRIPOS>MOLECULE
CHEMBL522455
   49    51     0     0     0
SMALL
USER_CHARGES

@<TRIPOS>ATOM
      1 C1         -0.0167    1.3794    0.0096 C.ar      1 <0>        -0.1261
      2 C2          1.1667    2.0884    0.0021 C.ar      1 <0>        -0.0646
      3 C3          2.3848    1.4070   -0.0132 C.ar      1 <0>        -0.1066
      4 C4          2.3966    0.0113   -0.0208 C.ar      1 <0>        -0.0837
      5 C5          1.2061   -0.6856   -0.0132 C.ar      1 <0>        -0.1218
      6 C6          0.0021   -0.0041    0.0020 C.ar      1 <0>        -0.0811
      7 C7         -1.2946   -0.7719    0.0103 C.3       1 <0>        -0.0720
      8 C8         -1.7472   -1.0241   -1.4293 C.3       1 <0>        -0.0311
      9 C9         -3.0439   -1.7919   -1.4210 C.2       1 <0>        -0.1544
     10 C10        -4.2952   -1.3095   -1.4119 C.2       1 <0>        -0.0824
     11 C11        -5.4132   -2.2372   -1.4050 C.2       1 <0>        -0.2925
     12 C12        -6.8173   -1.9633   -1.3955 C.2       1 <0>         0.5746
     13 O1         -7.2222   -0.8135   -1.3921 O.2       1 <0>        -0.5256
     14 N1         -7.6853   -2.9916   -1.3908 N.am      1 <0>        -0.6544
     15 H1         -8.6381   -2.8099   -1.3843 H         1 <0>         0.4137
     16 C13        -7.2510   -4.2843   -1.3953 C.2       1 <0>         0.6462
     17 N2         -5.9648   -4.5658   -1.4041 N.2       1 <0>        -0.5482
     18 C14        -5.0553   -3.5984   -1.4087 C.2       1 <0>         0.1488
     19 S1         -3.2813   -3.5588   -1.4288 S.3       1 <0>         0.1384
     20 N3         -8.1675   -5.3063   -1.3902 N.pl3     1 <0>        -0.8168
     21 C15         3.6569    2.1603   -0.0218 C.2       1 <0>         0.5496
     22 O2          3.6435    3.3757   -0.0155 O.2       1 <0>        -0.5545
     23 N4          4.8314    1.4994   -0.0366 N.am      1 <0>        -0.6755
     24 C16         6.0919    2.2459   -0.0451 C.3       1 <0>         0.0723
     25 H2          5.9814    3.1523    0.5501 H         1 <0>         0.0780
     26 C17         7.2027    1.3778    0.5494 C.3       1 <0>        -0.0804
     27 C18         6.9032    1.1060    2.0250 C.3       1 <0>        -0.1780
     28 C19         7.9973    0.2510    2.6105 C.2       1 <0>         0.4910
     29 O3          8.9302   -0.1078    1.9123 O.co2     1 <0>        -0.6971
     30 O4          7.9496   -0.0820    3.7824 O.co2     1 <0>        -0.7202
     31 C20         6.4472    2.6155   -1.4622 C.2       1 <0>         0.4957
     32 O5          5.7154    2.2860   -2.3799 O.co2     1 <0>        -0.6968
     33 O6          7.4666    3.2441   -1.6909 O.co2     1 <0>        -0.6999
     34 H3         -0.9598    1.9054    0.0260 H         1 <0>         0.1227
     35 H4          1.1508    3.1682    0.0077 H         1 <0>         0.1335
     36 H5          3.3358   -0.5219   -0.0330 H         1 <0>         0.1291
     37 H6          1.2138   -1.7656   -0.0191 H         1 <0>         0.1244
     38 H7         -1.1489   -1.7256    0.5176 H         1 <0>         0.0758
     39 H8         -2.0557   -0.1941    0.5345 H         1 <0>         0.0757
     40 H9         -1.8929   -0.0704   -1.9367 H         1 <0>         0.0936
     41 H10        -0.9861   -1.6019   -1.9536 H         1 <0>         0.0868
     42 H11        -4.4698   -0.2437   -1.4094 H         1 <0>         0.1410
     43 H12        -9.1167   -5.1065   -1.3834 H         1 <0>         0.4162
     44 H13        -7.8660   -6.2282   -1.3934 H         1 <0>         0.4308
     45 H14         4.8421    0.5294   -0.0416 H         1 <0>         0.3893
     46 H15         7.2537    0.4325    0.0090 H         1 <0>         0.0551
     47 H16         8.1565    1.8981    0.4621 H         1 <0>         0.0792
     48 H17         6.8522    2.0513    2.5654 H         1 <0>         0.0522
     49 H18         5.9494    0.5857    2.1123 H         1 <0>         0.0501
@<TRIPOS>BOND
     1    1    6 ar
     2    1    2 ar
     3    1   34 1
     4    2    3 ar
     5    2   35 1
     6    3    4 ar
     7    3   21 1
     8    4    5 ar
     9    4   36 1
    10    5    6 ar
    11    5   37 1
    12    6    7 1
    13    7    8 1
    14    7   38 1
    15    7   39 1
    16    8    9 1
    17    8   40 1
    18    8   41 1
    19    9   19 1
    20    9   10 2
    21   10   11 1
    22   10   42 1
    23   11   18 2
    24   11   12 1
    25   12   13 2
    26   12   14 am
    27   14   15 1
    28   14   16 1
    29   16   17 2
    30   16   20 1
    31   17   18 1
    32   18   19 1
    33   20   43 1
    34   20   44 1
    35   21   22 2
    36   21   23 am
    37   23   24 1
    38   23   45 1
    39   24   25 1
    40   24   26 1
    41   24   31 1
    42   26   27 1
    43   26   46 1
    44   26   47 1
    45   27   28 1
    46   27   48 1
    47   27   49 1
    48   28   29 2
    49   28   30 1
    50   31   32 2
    51   31   33 1
@<TRIPOS>MOLECULE
CHEMBL84904
   52    53     0     0     0
SMALL
USER_CHARGES

@<TRIPOS>ATOM
      1 C1         -0.3294    1.7213   -0.0032 C.ar      1 <0>        -0.1279
      2 C2          0.8345    2.4617    0.0132 C.ar      1 <0>        -0.0648
      3 C3          2.0667    1.8165    0.1301 C.ar      1 <0>        -0.1089
      4 C4          2.1123    0.4251    0.2297 C.ar      1 <0>        -0.0831
      5 C5          0.9409   -0.3035    0.2120 C.ar      1 <0>        -0.1222
      6 C6         -0.2772    0.3423    0.0959 C.ar      1 <0>        -0.0774
      7 C7         -1.5528   -0.4600    0.0773 C.3       1 <0>        -0.0696
      8 C8         -1.9006   -0.8316   -1.3655 C.3       1 <0>        -0.0978
      9 C9         -3.1956   -1.6461   -1.3844 C.3       1 <0>        -0.1025
     10 S1         -3.6079   -2.0867   -3.0951 S.3       1 <0>        -0.0932
     11 C10        -5.0300   -3.1153   -2.9394 C.2       1 <0>        -0.4293
     12 C11        -6.2606   -2.7041   -3.4376 C.2       1 <0>         0.5301
     13 N1         -7.3283   -3.5014   -3.3085 N.2       1 <0>        -0.6252
     14 C12        -7.2369   -4.6724   -2.7167 C.2       1 <0>         0.6770
     15 N2         -6.0561   -5.1225   -2.2112 N.am      1 <0>        -0.6604
     16 C13        -4.9421   -4.3681   -2.3154 C.2       1 <0>         0.5639
     17 O1         -3.8770   -4.7671   -1.8696 O.2       1 <0>        -0.5270
     18 N3         -8.3568   -5.4575   -2.6062 N.pl3     1 <0>        -0.8184
     19 N4         -6.3819   -1.4755   -4.0642 N.pl3     1 <0>        -0.8145
     20 C14         3.3181    2.6036    0.1478 C.2       1 <0>         0.5505
     21 O2          3.2754    3.8152    0.0605 O.2       1 <0>        -0.5554
     22 N5          4.5064    1.9776    0.2608 N.am      1 <0>        -0.6759
     23 C15         5.7464    2.7575    0.2784 C.3       1 <0>         0.0725
     24 H1          5.5742    3.7022    0.7942 H         1 <0>         0.0778
     25 C16         6.8347    1.9685    1.0092 C.3       1 <0>        -0.0804
     26 C17         6.4424    1.7989    2.4782 C.3       1 <0>        -0.1780
     27 C18         7.5143    1.0218    3.1980 C.2       1 <0>         0.4911
     28 O3          8.5007    0.6391    2.5921 O.co2     1 <0>        -0.6971
     29 O4          7.3952    0.7758    4.3862 O.co2     1 <0>        -0.7205
     30 C19         6.1881    3.0307   -1.1362 C.2       1 <0>         0.4956
     31 O5          5.5283    2.6127   -2.0724 O.co2     1 <0>        -0.6964
     32 O6          7.2053    3.6697   -1.3446 O.co2     1 <0>        -0.7003
     33 H2         -1.2838    2.2196   -0.0892 H         1 <0>         0.1211
     34 H3          0.7925    3.5380   -0.0646 H         1 <0>         0.1330
     35 H4          3.0626   -0.0802    0.3200 H         1 <0>         0.1287
     36 H5          0.9748   -1.3802    0.2890 H         1 <0>         0.1241
     37 H6         -1.4191   -1.3686    0.6644 H         1 <0>         0.0727
     38 H7         -2.3613    0.1331    0.5047 H         1 <0>         0.0701
     39 H8         -2.0342    0.0770   -1.9526 H         1 <0>         0.0720
     40 H9         -1.0921   -1.4247   -1.7930 H         1 <0>         0.0769
     41 H10        -3.0619   -2.5547   -0.7974 H         1 <0>         0.0847
     42 H11        -4.0041   -1.0531   -0.9570 H         1 <0>         0.0720
     43 H12        -9.2039   -5.1470   -2.9626 H         1 <0>         0.4288
     44 H13        -8.3014   -6.3230   -2.1718 H         1 <0>         0.4168
     45 H14        -5.5930   -0.9363   -4.2311 H         1 <0>         0.4242
     46 H15        -7.2557   -1.1539   -4.3361 H         1 <0>         0.4052
     47 H16         4.5405    1.0107    0.3305 H         1 <0>         0.3894
     48 H17         6.9448    0.9876    0.5469 H         1 <0>         0.0551
     49 H18         7.7796    2.5083    0.9454 H         1 <0>         0.0792
     50 H19         6.3323    2.7799    2.9405 H         1 <0>         0.0522
     51 H20         5.4975    1.2592    2.5420 H         1 <0>         0.0502
     52 H21        -6.0144   -5.9896   -1.7785 H         1 <0>         0.4112
@<TRIPOS>BOND
     1    1    6 ar
     2    1    2 ar
     3    1   33 1
     4    2    3 ar
     5    2   34 1
     6    3    4 ar
     7    3   20 1
     8    4    5 ar
     9    4   35 1
    10    5    6 ar
    11    5   36 1
    12    6    7 1
    13    7    8 1
    14    7   37 1
    15    7   38 1
    16    8    9 1
    17    8   39 1
    18    8   40 1
    19    9   10 1
    20    9   41 1
    21    9   42 1
    22   10   11 1
    23   11   16 1
    24   11   12 2
    25   12   13 1
    26   12   19 1
    27   13   14 2
    28   14   15 1
    29   14   18 1
    30   15   16 am
    31   15   52 1
    32   16   17 2
    33   18   43 1
    34   18   44 1
    35   19   45 1
    36   19   46 1
    37   20   21 2
    38   20   22 am
    39   22   23 1
    40   22   47 1
    41   23   24 1
    42   23   25 1
    43   23   30 1
    44   25   26 1
    45   25   48 1
    46   25   49 1
    47   26   27 1
    48   26   50 1
    49   26   51 1
    50   27   28 2
    51   27   29 1
    52   30   31 2
    53   30   32 1
@<TRIPOS>MOLECULE
CHEMBL23699
   60    62     0     0     0
SMALL
USER_CHARGES

@<TRIPOS>ATOM
      1 C1         -0.0438    1.5444    0.0432 C.3       1 <0>        -0.1467
      2 C2          0.0001    0.0183    0.1419 C.3       1 <0>        -0.0849
      3 C3          0.7692   -0.5482   -1.0534 C.3       1 <0>        -0.0722
      4 C4          2.2070   -0.1026   -0.9825 C.ar      1 <0>        -0.0748
      5 C5          2.5912    1.0827   -1.5840 C.ar      1 <0>        -0.1283
      6 C6          3.9059    1.4964   -1.5227 C.ar      1 <0>        -0.0661
      7 C7          4.8492    0.7163   -0.8521 C.ar      1 <0>        -0.1097
      8 C8          4.4550   -0.4784   -0.2475 C.ar      1 <0>        -0.0817
      9 C9          3.1360   -0.8777   -0.3113 C.ar      1 <0>        -0.1219
     10 C10         6.2599    1.1532   -0.7829 C.2       1 <0>         0.5483
     11 O1          6.6004    2.1938   -1.3108 O.2       1 <0>        -0.5571
     12 N1          7.1684    0.3976   -0.1346 N.am      1 <0>        -0.6744
     13 C11         8.5663    0.8306   -0.0661 C.3       1 <0>         0.0728
     14 C12         9.4687   -0.3889    0.1319 C.3       1 <0>        -0.0814
     15 C13         9.3845   -1.2912   -1.1009 C.3       1 <0>        -0.1772
     16 C14        10.2734   -2.4924   -0.9059 C.2       1 <0>         0.4911
     17 O2         10.9149   -2.6154    0.1236 O.co2     1 <0>        -0.6969
     18 O3         10.3511   -3.3412   -1.7777 O.co2     1 <0>        -0.7204
     19 C15         8.7422    1.7790    1.0918 C.2       1 <0>         0.4968
     20 O4          7.8423    1.9265    1.9011 O.co2     1 <0>        -0.6967
     21 O5          9.7844    2.3987    1.2193 O.co2     1 <0>        -0.7016
     22 C16        -1.4266   -0.5342    0.1385 C.3       1 <0>        -0.1182
     23 C17        -1.3892   -2.0446    0.3803 C.3       1 <0>         0.1335
     24 C18        -2.8126   -2.6178    0.3082 C.3       1 <0>         0.1238
     25 N2         -3.5985   -2.0348    1.4054 N.pl3     1 <0>        -0.7323
     26 C19        -3.0452   -1.9694    2.6686 C.2       1 <0>         0.3237
     27 C20        -1.6973   -2.1044    2.8393 C.2       1 <0>        -0.0310
     28 C21        -1.1601   -2.0281    4.1402 C.2       1 <0>         0.5352
     29 N3         -1.9833   -1.8272    5.1824 N.2       1 <0>        -0.6286
     30 C22        -3.2811   -1.7010    5.0072 C.2       1 <0>         0.6519
     31 N4         -3.8393   -1.7678    3.7679 N.pl3     1 <0>        -0.6358
     32 N5         -4.0887   -1.4983    6.0968 N.pl3     1 <0>        -0.8278
     33 O6          0.0446   -2.1442    4.3184 O.2       1 <0>        -0.5181
     34 N6         -0.8577   -2.3207    1.7248 N.pl3     1 <0>        -0.7203
     35 H1          0.9651    1.9443    0.1456 H         1 <0>         0.0641
     36 H2         -0.4530    1.8344   -0.9246 H         1 <0>         0.0498
     37 H3         -0.6746    1.9420    0.8383 H         1 <0>         0.0466
     38 H4          0.5000   -0.2719    1.0660 H         1 <0>         0.0802
     39 H5          0.7247   -1.6370   -1.0311 H         1 <0>         0.0698
     40 H6          0.3215   -0.1851   -1.9786 H         1 <0>         0.0684
     41 H7          1.8604    1.6852   -2.1029 H         1 <0>         0.1196
     42 H8          4.2046    2.4216   -1.9930 H         1 <0>         0.1317
     43 H9          5.1800   -1.0866    0.2729 H         1 <0>         0.1285
     44 H10         2.8288   -1.7997    0.1599 H         1 <0>         0.1225
     45 H11         6.8966   -0.4328    0.2866 H         1 <0>         0.3903
     46 H12         8.8361    1.3356   -0.9936 H         1 <0>         0.0779
     47 H13        10.4985   -0.0600    0.2717 H         1 <0>         0.0770
     48 H14         9.1420   -0.9438    1.0113 H         1 <0>         0.0568
     49 H15         8.3547   -1.6201   -1.2407 H         1 <0>         0.0505
     50 H16         9.7112   -0.7363   -1.9803 H         1 <0>         0.0523
     51 H17        -2.0040   -0.0541    0.9285 H         1 <0>         0.0629
     52 H18        -1.8923   -0.3321   -0.8260 H         1 <0>         0.0649
     53 H19        -0.7598   -2.5226   -0.3704 H         1 <0>         0.1003
     54 H20        -3.2661   -2.3571   -0.6480 H         1 <0>         0.0917
     55 H21        -2.7783   -3.7020    0.4161 H         1 <0>         0.0672
     56 H22        -4.4946   -1.7005    1.2438 H         1 <0>         0.3971
     57 H23        -3.7017   -1.4493    6.9849 H         1 <0>         0.4298
     58 H24        -5.0469   -1.4039    5.9795 H         1 <0>         0.4074
     59 H25         0.0493   -2.6437    1.8426 H         1 <0>         0.4119
     60 H26        -4.7988   -1.6725    3.6623 H         1 <0>         0.4080
@<TRIPOS>BOND
     1    1    2 1
     2    1   35 1
     3    1   36 1
     4    1   37 1
     5    2    3 1
     6    2   22 1
     7    2   38 1
     8    3    4 1
     9    3   39 1
    10    3   40 1
    11    4    9 ar
    12    4    5 ar
    13    5    6 ar
    14    5   41 1
    15    6    7 ar
    16    6   42 1
    17    7    8 ar
    18    7   10 1
    19    8    9 ar
    20    8   43 1
    21    9   44 1
    22   10   11 2
    23   10   12 am
    24   12   13 1
    25   12   45 1
    26   13   14 1
    27   13   19 1
    28   13   46 1
    29   14   15 1
    30   14   47 1
    31   14   48 1
    32   15   16 1
    33   15   49 1
    34   15   50 1
    35   16   17 2
    36   16   18 1
    37   19   20 2
    38   19   21 1
    39   22   23 1
    40   22   51 1
    41   22   52 1
    42   23   34 1
    43   23   24 1
    44   23   53 1
    45   24   25 1
    46   24   54 1
    47   24   55 1
    48   25   26 1
    49   25   56 1
    50   26   31 1
    51   26   27 2
    52   27   28 1
    53   27   34 1
    54   28   29 1
    55   28   33 2
    56   29   30 2
    57   30   31 1
    58   30   32 1
    59   31   60 1
    60   32   57 1
    61   32   58 1
    62   34   59 1
@<TRIPOS>MOLECULE
CHEMBL23699__1
   60    62     0     0     0
SMALL
USER_CHARGES

@<TRIPOS>ATOM
      1 C1         -0.0437    1.5444    0.0432 C.3       1 <0>        -0.1469
      2 C2          0.0001    0.0183    0.1418 C.3       1 <0>        -0.0834
      3 C3          0.7691   -0.5481   -1.0535 C.3       1 <0>        -0.0731
      4 C4          2.2070   -0.1026   -0.9827 C.ar      1 <0>        -0.0728
      5 C5          2.5911    1.0828   -1.5841 C.ar      1 <0>        -0.1282
      6 C6          3.9058    1.4964   -1.5230 C.ar      1 <0>        -0.0657
      7 C7          4.8491    0.7163   -0.8524 C.ar      1 <0>        -0.1122
      8 C8          4.4550   -0.4784   -0.2478 C.ar      1 <0>        -0.0818
      9 C9          3.1360   -0.8777   -0.3116 C.ar      1 <0>        -0.1224
     10 C10         6.2599    1.1532   -0.7833 C.2       1 <0>         0.5436
     11 O1          6.6004    2.1938   -1.3111 O.2       1 <0>        -0.5546
     12 N1          7.1684    0.3976   -0.1351 N.am      1 <0>        -0.6754
     13 C11         8.5663    0.8305   -0.0666 C.3       1 <0>         0.0737
     14 C12         9.4687   -0.3890    0.1313 C.3       1 <0>        -0.0825
     15 C13         9.3844   -1.2913   -1.1015 C.3       1 <0>        -0.1770
     16 C14        10.2733   -2.4925   -0.9066 C.2       1 <0>         0.4912
     17 O2         10.9148   -2.6155    0.1229 O.co2     1 <0>        -0.6974
     18 O3         10.3509   -3.3413   -1.7784 O.co2     1 <0>        -0.7198
     19 C15         8.7423    1.7789    1.0913 C.2       1 <0>         0.4982
     20 O4          8.0364    1.6718    2.0797 O.co2     1 <0>        -0.6981
     21 O5          9.5905    2.6531    1.0397 O.co2     1 <0>        -0.7016
     22 C16        -1.4266   -0.5342    0.1385 C.3       1 <0>        -0.1194
     23 C17        -1.3892   -2.0446    0.3803 C.3       1 <0>         0.1401
     24 C18        -2.8120   -2.6175    0.3049 C.3       1 <0>         0.1175
     25 N2         -3.6080   -2.0240    1.3888 N.pl3     1 <0>        -0.7115
     26 C19        -3.0653   -1.9540    2.6622 C.2       1 <0>         0.3908
     27 C20        -1.6962   -2.0973    2.8390 C.2       1 <0>        -0.0803
     28 C21        -1.1655   -2.0203    4.1310 C.2       1 <0>         0.5382
     29 N3         -2.0104   -1.8093    5.1638 N.am      1 <0>        -0.6499
     30 C22        -3.3461   -1.6779    4.9385 C.2       1 <0>         0.6229
     31 N4         -3.8515   -1.7485    3.7256 N.2       1 <0>        -0.5919
     32 N5         -4.1865   -1.4667    6.0023 N.pl3     1 <0>        -0.8301
     33 O6          0.0352   -2.1417    4.3211 O.2       1 <0>        -0.5412
     34 N6         -0.8577   -2.3200    1.7248 N.pl3     1 <0>        -0.7241
     35 H1          0.9651    1.9443    0.1454 H         1 <0>         0.0627
     36 H2         -0.4532    1.8344   -0.9245 H         1 <0>         0.0503
     37 H3         -0.6744    1.9419    0.8384 H         1 <0>         0.0467
     38 H4          0.5000   -0.2719    1.0659 H         1 <0>         0.0787
     39 H5          0.7246   -1.6370   -1.0312 H         1 <0>         0.0703
     40 H6          0.3214   -0.1851   -1.9786 H         1 <0>         0.0690
     41 H7          1.8603    1.6853   -2.1030 H         1 <0>         0.1202
     42 H8          4.2045    2.4217   -1.9932 H         1 <0>         0.1319
     43 H9          5.1800   -1.0866    0.2725 H         1 <0>         0.1285
     44 H10         2.8288   -1.7997    0.1596 H         1 <0>         0.1225
     45 H11         6.8966   -0.4329    0.2862 H         1 <0>         0.3916
     46 H12         8.8361    1.3355   -0.9941 H         1 <0>         0.0776
     47 H13        10.4985   -0.0601    0.2710 H         1 <0>         0.0726
     48 H14         9.1420   -0.9439    1.0107 H         1 <0>         0.0603
     49 H15         8.3546   -1.6202   -1.2412 H         1 <0>         0.0511
     50 H16         9.7111   -0.7363   -1.9809 H         1 <0>         0.0526
     51 H17        -2.0040   -0.0540    0.9286 H         1 <0>         0.0640
     52 H18        -1.8923   -0.3321   -0.8260 H         1 <0>         0.0647
     53 H19        -0.7589   -2.5220   -0.3699 H         1 <0>         0.0981
     54 H20        -3.2581   -2.3674   -0.6577 H         1 <0>         0.0900
     55 H21        -2.7786   -3.7005    0.4244 H         1 <0>         0.0655
     56 H22        -4.5004   -1.6858    1.2152 H         1 <0>         0.4031
     57 H23        -3.8266   -1.4126    6.9014 H         1 <0>         0.4120
     58 H24        -5.1405   -1.3714    5.8552 H         1 <0>         0.4240
     59 H25         0.0477   -2.6474    1.8429 H         1 <0>         0.4057
     60 H26        -1.6642   -1.7515    6.0681 H         1 <0>         0.4113
@<TRIPOS>BOND
     1    1    2 1
     2    1   35 1
     3    1   36 1
     4    1   37 1
     5    2    3 1
     6    2   22 1
     7    2   38 1
     8    3    4 1
     9    3   39 1
    10    3   40 1
    11    4    9 ar
    12    4    5 ar
    13    5    6 ar
    14    5   41 1
    15    6    7 ar
    16    6   42 1
    17    7    8 ar
    18    7   10 1
    19    8    9 ar
    20    8   43 1
    21    9   44 1
    22   10   11 2
    23   10   12 am
    24   12   13 1
    25   12   45 1
    26   13   14 1
    27   13   19 1
    28   13   46 1
    29   14   15 1
    30   14   47 1
    31   14   48 1
    32   15   16 1
    33   15   49 1
    34   15   50 1
    35   16   17 2
    36   16   18 1
    37   19   20 2
    38   19   21 1
    39   22   23 1
    40   22   51 1
    41   22   52 1
    42   23   34 1
    43   23   24 1
    44   23   53 1
    45   24   25 1
    46   24   54 1
    47   24   55 1
    48   25   26 1
    49   25   56 1
    50   26   31 1
    51   26   27 2
    52   27   28 1
    53   27   34 1
    54   28   29 am
    55   28   33 2
    56   29   30 1
    57   29   60 1
    58   30   31 2
    59   30   32 1
    60   32   57 1
    61   32   58 1
    62   34   59 1
@<TRIPOS>MOLECULE
CHEMBL23699__2
   60    62     0     0     0
SMALL
USER_CHARGES

@<TRIPOS>ATOM
      1 C1         -0.0187    1.5258    0.0104 C.3       1 <0>        -0.1518
      2 C2          0.0021   -0.0041    0.0020 C.3       1 <0>        -0.0847
      3 C3          0.7182   -0.4975   -1.2568 C.3       1 <0>        -0.0691
      4 C4          2.1652   -0.0794   -1.2080 C.ar      1 <0>        -0.0743
      5 C5          2.5484    1.1389   -1.7401 C.ar      1 <0>        -0.1282
      6 C6          3.8715    1.5277   -1.6986 C.ar      1 <0>        -0.0661
      7 C7          4.8242    0.6888   -1.1184 C.ar      1 <0>        -0.1097
      8 C8          4.4310   -0.5389   -0.5834 C.ar      1 <0>        -0.0814
      9 C9          3.1038   -0.9131   -0.6263 C.ar      1 <0>        -0.1218
     10 C10         6.2439    1.0988   -1.0709 C.2       1 <0>         0.5485
     11 O1          6.5836    2.1684   -1.5379 O.2       1 <0>        -0.5570
     12 N1          7.1615    0.2865   -0.5099 N.am      1 <0>        -0.6745
     13 C11         8.5683    0.6927   -0.4629 C.3       1 <0>         0.0726
     14 C12         9.4558   -0.5509   -0.3826 C.3       1 <0>        -0.0813
     15 C13         9.3121   -1.3640   -1.6707 C.3       1 <0>        -0.1774
     16 C14        10.1863   -2.5890   -1.5917 C.2       1 <0>         0.4912
     17 O2         10.8617   -2.7928   -0.5972 O.co2     1 <0>        -0.6970
     18 O3         10.2182   -3.3762   -2.5221 O.co2     1 <0>        -0.7204
     19 C15         8.8017    1.5556    0.7504 C.2       1 <0>         0.4969
     20 O4          7.9339    1.6600    1.6003 O.co2     1 <0>        -0.6965
     21 O5          9.8584    2.1494    0.8820 O.co2     1 <0>        -0.7016
     22 C16        -1.4333   -0.5336    0.0129 C.3       1 <0>        -0.1189
     23 C17        -2.1103   -0.1453    1.3289 C.3       1 <0>         0.1355
     24 C18        -3.5780   -0.5984    1.3118 C.3       1 <0>         0.1243
     25 N2         -3.6044   -2.0666    1.2415 N.pl3     1 <0>        -0.7325
     26 C19        -2.7650   -2.7948    2.0609 C.2       1 <0>         0.3255
     27 C20        -1.6943   -2.1951    2.6594 C.2       1 <0>        -0.0326
     28 C21        -0.8516   -2.9647    3.4867 C.2       1 <0>         0.5359
     29 N3         -1.1201   -4.2679    3.6707 N.2       1 <0>        -0.6280
     30 C22        -2.1561   -4.8354    3.0913 C.2       1 <0>         0.6528
     31 N4         -2.9934   -4.1279    2.2849 N.pl3     1 <0>        -0.6360
     32 N5         -2.3970   -6.1685    3.3042 N.pl3     1 <0>        -0.8271
     33 O6          0.1154   -2.4507    4.0317 O.2       1 <0>        -0.5196
     34 N6         -1.4409   -0.8216    2.4517 N.pl3     1 <0>        -0.7211
     35 H1          1.0039    1.9031    0.0027 H         1 <0>         0.0656
     36 H2         -0.5459    1.8868   -0.8726 H         1 <0>         0.0506
     37 H3         -0.5289    1.8773    0.9072 H         1 <0>         0.0507
     38 H4          0.5293   -0.3651    0.8851 H         1 <0>         0.0799
     39 H5          0.6556   -1.5845   -1.3079 H         1 <0>         0.0662
     40 H6          0.2444   -0.0644   -2.1377 H         1 <0>         0.0672
     41 H7          1.8103    1.7869   -2.1891 H         1 <0>         0.1202
     42 H8          4.1694    2.4788   -2.1146 H         1 <0>         0.1321
     43 H9          5.1633   -1.1925   -0.1331 H         1 <0>         0.1283
     44 H10         2.7974   -1.8609   -0.2088 H         1 <0>         0.1214
     45 H11         6.8905   -0.5670   -0.1372 H         1 <0>         0.3903
     46 H12         8.8138    1.2569   -1.3627 H         1 <0>         0.0779
     47 H13        10.4955   -0.2479   -0.2583 H         1 <0>         0.0771
     48 H14         9.1509   -1.1606    0.4678 H         1 <0>         0.0568
     49 H15         8.2725   -1.6670   -1.7950 H         1 <0>         0.0504
     50 H16         9.6171   -0.7543   -2.5212 H         1 <0>         0.0523
     51 H17        -1.9862   -0.1019   -0.8214 H         1 <0>         0.0646
     52 H18        -1.4207   -1.6194   -0.0826 H         1 <0>         0.0629
     53 H19        -2.0585    0.9349    1.4653 H         1 <0>         0.0989
     54 H20        -4.0765   -0.2648    2.2219 H         1 <0>         0.0660
     55 H21        -4.0821   -0.1794    0.4410 H         1 <0>         0.0912
     56 H22        -4.2039   -2.5181    0.6270 H         1 <0>         0.3975
     57 H23        -1.8066   -6.6827    3.8769 H         1 <0>         0.4303
     58 H24        -3.1579   -6.5973    2.8822 H         1 <0>         0.4076
     59 H25        -0.8393   -0.3345    3.0363 H         1 <0>         0.4109
     60 H26        -3.7519   -4.5667    1.8690 H         1 <0>         0.4083
@<TRIPOS>BOND
     1    1    2 1
     2    1   35 1
     3    1   36 1
     4    1   37 1
     5    2    3 1
     6    2   22 1
     7    2   38 1
     8    3    4 1
     9    3   39 1
    10    3   40 1
    11    4    9 ar
    12    4    5 ar
    13    5    6 ar
    14    5   41 1
    15    6    7 ar
    16    6   42 1
    17    7    8 ar
    18    7   10 1
    19    8    9 ar
    20    8   43 1
    21    9   44 1
    22   10   11 2
    23   10   12 am
    24   12   13 1
    25   12   45 1
    26   13   14 1
    27   13   19 1
    28   13   46 1
    29   14   15 1
    30   14   47 1
    31   14   48 1
    32   15   16 1
    33   15   49 1
    34   15   50 1
    35   16   17 2
    36   16   18 1
    37   19   20 2
    38   19   21 1
    39   22   23 1
    40   22   51 1
    41   22   52 1
    42   23   34 1
    43   23   24 1
    44   23   53 1
    45   24   25 1
    46   24   54 1
    47   24   55 1
    48   25   26 1
    49   25   56 1
    50   26   31 1
    51   26   27 2
    52   27   28 1
    53   27   34 1
    54   28   29 1
    55   28   33 2
    56   29   30 2
    57   30   31 1
    58   30   32 1
    59   31   60 1
    60   32   57 1
    61   32   58 1
    62   34   59 1
@<TRIPOS>MOLECULE
CHEMBL23699__3
   60    62     0     0     0
SMALL
USER_CHARGES

@<TRIPOS>ATOM
      1 C1         -0.0187    1.5258    0.0104 C.3       1 <0>        -0.1518
      2 C2          0.0021   -0.0041    0.0020 C.3       1 <0>        -0.0831
      3 C3          0.7182   -0.4975   -1.2568 C.3       1 <0>        -0.0703
      4 C4          2.1652   -0.0794   -1.2080 C.ar      1 <0>        -0.0720
      5 C5          2.5484    1.1389   -1.7401 C.ar      1 <0>        -0.1280
      6 C6          3.8715    1.5277   -1.6986 C.ar      1 <0>        -0.0654
      7 C7          4.8242    0.6888   -1.1184 C.ar      1 <0>        -0.1122
      8 C8          4.4310   -0.5389   -0.5834 C.ar      1 <0>        -0.0817
      9 C9          3.1038   -0.9131   -0.6263 C.ar      1 <0>        -0.1226
     10 C10         6.2439    1.0988   -1.0709 C.2       1 <0>         0.5438
     11 O1          6.5836    2.1684   -1.5379 O.2       1 <0>        -0.5543
     12 N1          7.1615    0.2865   -0.5099 N.am      1 <0>        -0.6755
     13 C11         8.5683    0.6927   -0.4629 C.3       1 <0>         0.0735
     14 C12         9.4558   -0.5509   -0.3826 C.3       1 <0>        -0.0824
     15 C13         9.3121   -1.3640   -1.6707 C.3       1 <0>        -0.1772
     16 C14        10.1863   -2.5890   -1.5917 C.2       1 <0>         0.4913
     17 O2         10.8617   -2.7928   -0.5972 O.co2     1 <0>        -0.6975
     18 O3         10.2182   -3.3762   -2.5221 O.co2     1 <0>        -0.7198
     19 C15         8.8017    1.5556    0.7504 C.2       1 <0>         0.4983
     20 O4          8.1296    1.3907    1.7541 O.co2     1 <0>        -0.6978
     21 O5          9.6627    2.4186    0.7281 O.co2     1 <0>        -0.7015
     22 C16        -1.4333   -0.5336    0.0129 C.3       1 <0>        -0.1201
     23 C17        -2.1103   -0.1453    1.3289 C.3       1 <0>         0.1421
     24 C18        -3.5783   -0.5956    1.3099 C.3       1 <0>         0.1181
     25 N2         -3.6113   -2.0625    1.2211 N.pl3     1 <0>        -0.7117
     26 C19        -2.7752   -2.8057    2.0395 C.2       1 <0>         0.3930
     27 C20        -1.6898   -2.1970    2.6541 C.2       1 <0>        -0.0826
     28 C21        -0.8546   -2.9632    3.4739 C.2       1 <0>         0.5391
     29 N3         -1.1381   -4.2738    3.6383 N.am      1 <0>        -0.6497
     30 C22        -2.2163   -4.8234    3.0158 C.2       1 <0>         0.6248
     31 N4         -3.0054   -4.1083    2.2427 N.2       1 <0>        -0.5927
     32 N5         -2.4868   -6.1560    3.1979 N.pl3     1 <0>        -0.8292
     33 O6          0.1099   -2.4585    4.0285 O.2       1 <0>        -0.5427
     34 N6         -1.4405   -0.8219    2.4513 N.pl3     1 <0>        -0.7250
     35 H1          1.0039    1.9031    0.0027 H         1 <0>         0.0642
     36 H2         -0.5459    1.8868   -0.8726 H         1 <0>         0.0510
     37 H3         -0.5289    1.8773    0.9072 H         1 <0>         0.0508
     38 H4          0.5293   -0.3651    0.8851 H         1 <0>         0.0783
     39 H5          0.6556   -1.5845   -1.3079 H         1 <0>         0.0667
     40 H6          0.2444   -0.0644   -2.1377 H         1 <0>         0.0680
     41 H7          1.8103    1.7869   -2.1891 H         1 <0>         0.1210
     42 H8          4.1694    2.4788   -2.1146 H         1 <0>         0.1325
     43 H9          5.1633   -1.1925   -0.1331 H         1 <0>         0.1282
     44 H10         2.7974   -1.8609   -0.2088 H         1 <0>         0.1208
     45 H11         6.8905   -0.5670   -0.1372 H         1 <0>         0.3914
     46 H12         8.8138    1.2569   -1.3627 H         1 <0>         0.0777
     47 H13        10.4955   -0.2479   -0.2583 H         1 <0>         0.0727
     48 H14         9.1509   -1.1606    0.4678 H         1 <0>         0.0601
     49 H15         8.2725   -1.6670   -1.7950 H         1 <0>         0.0509
     50 H16         9.6171   -0.7543   -2.5212 H         1 <0>         0.0527
     51 H17        -1.9862   -0.1019   -0.8214 H         1 <0>         0.0644
     52 H18        -1.4207   -1.6194   -0.0826 H         1 <0>         0.0640
     53 H19        -2.0573    0.9349    1.4654 H         1 <0>         0.0966
     54 H20        -4.0736   -0.2719    2.2253 H         1 <0>         0.0643
     55 H21        -4.0837   -0.1640    0.4460 H         1 <0>         0.0896
     56 H22        -4.2101   -2.5042    0.5988 H         1 <0>         0.4035
     57 H23        -1.9125   -6.6944    3.7648 H         1 <0>         0.4125
     58 H24        -3.2522   -6.5599    2.7599 H         1 <0>         0.4243
     59 H25        -0.8413   -0.3345    3.0381 H         1 <0>         0.4047
     60 H26        -0.5720   -4.8243    4.2017 H         1 <0>         0.4120
@<TRIPOS>BOND
     1    1    2 1
     2    1   35 1
     3    1   36 1
     4    1   37 1
     5    2    3 1
     6    2   22 1
     7    2   38 1
     8    3    4 1
     9    3   39 1
    10    3   40 1
    11    4    9 ar
    12    4    5 ar
    13    5    6 ar
    14    5   41 1
    15    6    7 ar
    16    6   42 1
    17    7    8 ar
    18    7   10 1
    19    8    9 ar
    20    8   43 1
    21    9   44 1
    22   10   11 2
    23   10   12 am
    24   12   13 1
    25   12   45 1
    26   13   14 1
    27   13   19 1
    28   13   46 1
    29   14   15 1
    30   14   47 1
    31   14   48 1
    32   15   16 1
    33   15   49 1
    34   15   50 1
    35   16   17 2
    36   16   18 1
    37   19   20 2
    38   19   21 1
    39   22   23 1
    40   22   51 1
    41   22   52 1
    42   23   34 1
    43   23   24 1
    44   23   53 1
    45   24   25 1
    46   24   54 1
    47   24   55 1
    48   25   26 1
    49   25   56 1
    50   26   31 1
    51   26   27 2
    52   27   28 1
    53   27   34 1
    54   28   29 am
    55   28   33 2
    56   29   30 1
    57   29   60 1
    58   30   31 2
    59   30   32 1
    60   32   57 1
    61   32   58 1
    62   34   59 1
@<TRIPOS>MOLECULE
CHEMBL23699__4
   60    62     0     0     0
SMALL
USER_CHARGES

@<TRIPOS>ATOM
      1 C1         -0.0438    1.5444    0.0432 C.3       1 <0>        -0.1464
      2 C2          0.0001    0.0183    0.1419 C.3       1 <0>        -0.0850
      3 C3          0.7692   -0.5482   -1.0534 C.3       1 <0>        -0.0724
      4 C4          2.2070   -0.1026   -0.9825 C.ar      1 <0>        -0.0740
      5 C5          2.5912    1.0827   -1.5840 C.ar      1 <0>        -0.1283
      6 C6          3.9059    1.4964   -1.5227 C.ar      1 <0>        -0.0658
      7 C7          4.8492    0.7163   -0.8521 C.ar      1 <0>        -0.1115
      8 C8          4.4550   -0.4784   -0.2475 C.ar      1 <0>        -0.0812
      9 C9          3.1360   -0.8777   -0.3113 C.ar      1 <0>        -0.1219
     10 C10         6.2599    1.1532   -0.7829 C.2       1 <0>         0.5435
     11 O1          6.6004    2.1938   -1.3108 O.2       1 <0>        -0.5548
     12 N1          7.1684    0.3976   -0.1346 N.am      1 <0>        -0.6750
     13 C11         8.5663    0.8306   -0.0661 C.3       1 <0>         0.0737
     14 C12         9.2317    0.2129    1.1654 C.3       1 <0>        -0.0822
     15 C13         8.5742    0.7656    2.4316 C.3       1 <0>        -0.1775
     16 C14         9.2296    0.1572    3.6445 C.2       1 <0>         0.4914
     17 O2         10.1383   -0.6442    3.5089 O.co2     1 <0>        -0.6982
     18 O3          8.8511    0.4664    4.7615 O.co2     1 <0>        -0.7186
     19 C15         9.2926    0.3817   -1.3078 C.2       1 <0>         0.4988
     20 O4         10.2275    1.0359   -1.7373 O.co2     1 <0>        -0.7016
     21 O5          8.9454   -0.6357   -1.8830 O.co2     1 <0>        -0.6988
     22 C16        -1.4266   -0.5342    0.1385 C.3       1 <0>        -0.1182
     23 C17        -1.3892   -2.0446    0.3803 C.3       1 <0>         0.1335
     24 C18        -2.8126   -2.6178    0.3082 C.3       1 <0>         0.1239
     25 N2         -3.5985   -2.0348    1.4054 N.pl3     1 <0>        -0.7325
     26 C19        -3.0452   -1.9694    2.6686 C.2       1 <0>         0.3236
     27 C20        -1.6973   -2.1044    2.8393 C.2       1 <0>        -0.0310
     28 C21        -1.1601   -2.0281    4.1402 C.2       1 <0>         0.5347
     29 N3         -1.9833   -1.8272    5.1824 N.2       1 <0>        -0.6280
     30 C22        -3.2811   -1.7010    5.0072 C.2       1 <0>         0.6518
     31 N4         -3.8393   -1.7678    3.7679 N.pl3     1 <0>        -0.6360
     32 N5         -4.0887   -1.4983    6.0968 N.pl3     1 <0>        -0.8278
     33 O6          0.0446   -2.1442    4.3184 O.2       1 <0>        -0.5168
     34 N6         -0.8577   -2.3207    1.7248 N.pl3     1 <0>        -0.7204
     35 H1          0.9651    1.9443    0.1456 H         1 <0>         0.0635
     36 H2         -0.4530    1.8344   -0.9246 H         1 <0>         0.0499
     37 H3         -0.6746    1.9420    0.8383 H         1 <0>         0.0467
     38 H4          0.5000   -0.2719    1.0660 H         1 <0>         0.0804
     39 H5          0.7247   -1.6370   -1.0311 H         1 <0>         0.0699
     40 H6          0.3215   -0.1851   -1.9786 H         1 <0>         0.0686
     41 H7          1.8604    1.6852   -2.1029 H         1 <0>         0.1198
     42 H8          4.2046    2.4216   -1.9930 H         1 <0>         0.1319
     43 H9          5.1800   -1.0866    0.2729 H         1 <0>         0.1291
     44 H10         2.8288   -1.7997    0.1599 H         1 <0>         0.1229
     45 H11         6.8966   -0.4328    0.2866 H         1 <0>         0.3918
     46 H12         8.6069    1.9175    0.0057 H         1 <0>         0.0776
     47 H13         9.1130   -0.8703    1.1376 H         1 <0>         0.0603
     48 H14        10.2928    0.4622    1.1685 H         1 <0>         0.0725
     49 H15         8.6928    1.8488    2.4594 H         1 <0>         0.0524
     50 H16         7.5131    0.5163    2.4284 H         1 <0>         0.0515
     51 H17        -2.0040   -0.0541    0.9285 H         1 <0>         0.0631
     52 H18        -1.8923   -0.3321   -0.8260 H         1 <0>         0.0649
     53 H19        -0.7598   -2.5226   -0.3704 H         1 <0>         0.1001
     54 H20        -3.2661   -2.3571   -0.6480 H         1 <0>         0.0915
     55 H21        -2.7783   -3.7020    0.4161 H         1 <0>         0.0670
     56 H22        -4.4946   -1.7005    1.2438 H         1 <0>         0.3970
     57 H23        -3.7017   -1.4493    6.9849 H         1 <0>         0.4299
     58 H24        -5.0469   -1.4039    5.9795 H         1 <0>         0.4073
     59 H25         0.0493   -2.6437    1.8426 H         1 <0>         0.4119
     60 H26        -4.7988   -1.6725    3.6623 H         1 <0>         0.4079
@<TRIPOS>BOND
     1    1    2 1
     2    1   35 1
     3    1   36 1
     4    1   37 1
     5    2    3 1
     6    2   22 1
     7    2   38 1
     8    3    4 1
     9    3   39 1
    10    3   40 1
    11    4    9 ar
    12    4    5 ar
    13    5    6 ar
    14    5   41 1
    15    6    7 ar
    16    6   42 1
    17    7    8 ar
    18    7   10 1
    19    8    9 ar
    20    8   43 1
    21    9   44 1
    22   10   11 2
    23   10   12 am
    24   12   13 1
    25   12   45 1
    26   13   14 1
    27   13   19 1
    28   13   46 1
    29   14   15 1
    30   14   47 1
    31   14   48 1
    32   15   16 1
    33   15   49 1
    34   15   50 1
    35   16   17 2
    36   16   18 1
    37   19   20 2
    38   19   21 1
    39   22   23 1
    40   22   51 1
    41   22   52 1
    42   23   34 1
    43   23   24 1
    44   23   53 1
    45   24   25 1
    46   24   54 1
    47   24   55 1
    48   25   26 1
    49   25   56 1
    50   26   31 1
    51   26   27 2
    52   27   28 1
    53   27   34 1
    54   28   29 1
    55   28   33 2
    56   29   30 2
    57   30   31 1
    58   30   32 1
    59   31   60 1
    60   32   57 1
    61   32   58 1
    62   34   59 1
@<TRIPOS>MOLECULE
CHEMBL23699__5
   60    62     0     0     0
SMALL
USER_CHARGES

@<TRIPOS>ATOM
      1 C1         -0.0437    1.5444    0.0432 C.3       1 <0>        -0.1466
      2 C2          0.0001    0.0183    0.1418 C.3       1 <0>        -0.0834
      3 C3          0.7691   -0.5481   -1.0535 C.3       1 <0>        -0.0729
      4 C4          2.2070   -0.1026   -0.9827 C.ar      1 <0>        -0.0738
      5 C5          2.5911    1.0828   -1.5841 C.ar      1 <0>        -0.1281
      6 C6          3.9058    1.4964   -1.5230 C.ar      1 <0>        -0.0659
      7 C7          4.8491    0.7163   -0.8524 C.ar      1 <0>        -0.1098
      8 C8          4.4550   -0.4784   -0.2478 C.ar      1 <0>        -0.0827
      9 C9          3.1360   -0.8777   -0.3116 C.ar      1 <0>        -0.1226
     10 C10         6.2599    1.1532   -0.7833 C.2       1 <0>         0.5505
     11 O1          6.6004    2.1938   -1.3111 O.2       1 <0>        -0.5561
     12 N1          7.1684    0.3976   -0.1351 N.am      1 <0>        -0.6759
     13 C11         8.5663    0.8305   -0.0666 C.3       1 <0>         0.0725
     14 C12         9.2317    0.2128    1.1649 C.3       1 <0>        -0.0802
     15 C13         8.5743    0.7655    2.4310 C.3       1 <0>        -0.1781
     16 C14         9.2298    0.1570    3.6440 C.2       1 <0>         0.4912
     17 O2         10.1385   -0.6444    3.5083 O.co2     1 <0>        -0.6974
     18 O3          8.8514    0.4662    4.7610 O.co2     1 <0>        -0.7199
     19 C15         9.2926    0.3817   -1.3084 C.2       1 <0>         0.4960
     20 O4          8.6976   -0.2420   -2.1707 O.co2     1 <0>        -0.6971
     21 O5         10.4751    0.6423   -1.4507 O.co2     1 <0>        -0.7002
     22 C16        -1.4266   -0.5342    0.1385 C.3       1 <0>        -0.1194
     23 C17        -1.3892   -2.0446    0.3803 C.3       1 <0>         0.1402
     24 C18        -2.8120   -2.6175    0.3049 C.3       1 <0>         0.1176
     25 N2         -3.6080   -2.0240    1.3888 N.pl3     1 <0>        -0.7117
     26 C19        -3.0653   -1.9540    2.6622 C.2       1 <0>         0.3907
     27 C20        -1.6962   -2.0973    2.8390 C.2       1 <0>        -0.0805
     28 C21        -1.1655   -2.0203    4.1310 C.2       1 <0>         0.5380
     29 N3         -2.0104   -1.8093    5.1638 N.am      1 <0>        -0.6499
     30 C22        -3.3461   -1.6779    4.9385 C.2       1 <0>         0.6231
     31 N4         -3.8515   -1.7485    3.7256 N.2       1 <0>        -0.5923
     32 N5         -4.1865   -1.4667    6.0023 N.pl3     1 <0>        -0.8301
     33 O6          0.0352   -2.1417    4.3211 O.2       1 <0>        -0.5401
     34 N6         -0.8577   -2.3200    1.7248 N.pl3     1 <0>        -0.7241
     35 H1          0.9651    1.9443    0.1454 H         1 <0>         0.0624
     36 H2         -0.4532    1.8344   -0.9245 H         1 <0>         0.0503
     37 H3         -0.6744    1.9419    0.8384 H         1 <0>         0.0466
     38 H4          0.5000   -0.2719    1.0659 H         1 <0>         0.0787
     39 H5          0.7246   -1.6370   -1.0312 H         1 <0>         0.0699
     40 H6          0.3214   -0.1851   -1.9786 H         1 <0>         0.0688
     41 H7          1.8603    1.6853   -2.1030 H         1 <0>         0.1199
     42 H8          4.2045    2.4217   -1.9932 H         1 <0>         0.1317
     43 H9          5.1800   -1.0866    0.2725 H         1 <0>         0.1275
     44 H10         2.8288   -1.7997    0.1596 H         1 <0>         0.1219
     45 H11         6.8966   -0.4329    0.2862 H         1 <0>         0.3893
     46 H12         8.6069    1.9174    0.0053 H         1 <0>         0.0776
     47 H13         9.1131   -0.8704    1.1370 H         1 <0>         0.0550
     48 H14        10.2928    0.4621    1.1679 H         1 <0>         0.0791
     49 H15         8.6930    1.8487    2.4589 H         1 <0>         0.0520
     50 H16         7.5132    0.5162    2.4280 H         1 <0>         0.0502
     51 H17        -2.0040   -0.0540    0.9286 H         1 <0>         0.0640
     52 H18        -1.8923   -0.3321   -0.8260 H         1 <0>         0.0646
     53 H19        -0.7589   -2.5220   -0.3699 H         1 <0>         0.0979
     54 H20        -3.2581   -2.3674   -0.6577 H         1 <0>         0.0898
     55 H21        -2.7786   -3.7005    0.4244 H         1 <0>         0.0652
     56 H22        -4.5004   -1.6858    1.2152 H         1 <0>         0.4030
     57 H23        -3.8266   -1.4126    6.9014 H         1 <0>         0.4121
     58 H24        -5.1405   -1.3714    5.8552 H         1 <0>         0.4239
     59 H25         0.0477   -2.6474    1.8429 H         1 <0>         0.4057
     60 H26        -1.6642   -1.7515    6.0681 H         1 <0>         0.4116
@<TRIPOS>BOND
     1    1    2 1
     2    1   35 1
     3    1   36 1
     4    1   37 1
     5    2    3 1
     6    2   22 1
     7    2   38 1
     8    3    4 1
     9    3   39 1
    10    3   40 1
    11    4    9 ar
    12    4    5 ar
    13    5    6 ar
    14    5   41 1
    15    6    7 ar
    16    6   42 1
    17    7    8 ar
    18    7   10 1
    19    8    9 ar
    20    8   43 1
    21    9   44 1
    22   10   11 2
    23   10   12 am
    24   12   13 1
    25   12   45 1
    26   13   14 1
    27   13   19 1
    28   13   46 1
    29   14   15 1
    30   14   47 1
    31   14   48 1
    32   15   16 1
    33   15   49 1
    34   15   50 1
    35   16   17 2
    36   16   18 1
    37   19   20 2
    38   19   21 1
    39   22   23 1
    40   22   51 1
    41   22   52 1
    42   23   34 1
    43   23   24 1
    44   23   53 1
    45   24   25 1
    46   24   54 1
    47   24   55 1
    48   25   26 1
    49   25   56 1
    50   26   31 1
    51   26   27 2
    52   27   28 1
    53   27   34 1
    54   28   29 am
    55   28   33 2
    56   29   30 1
    57   29   60 1
    58   30   31 2
    59   30   32 1
    60   32   57 1
    61   32   58 1
    62   34   59 1
@<TRIPOS>MOLECULE
CHEMBL23699__6
   60    62     0     0     0
SMALL
USER_CHARGES

@<TRIPOS>ATOM
      1 C1         -0.0187    1.5258    0.0104 C.3       1 <0>        -0.1516
      2 C2          0.0021   -0.0041    0.0020 C.3       1 <0>        -0.0848
      3 C3          0.7182   -0.4975   -1.2568 C.3       1 <0>        -0.0693
      4 C4          2.1652   -0.0794   -1.2080 C.ar      1 <0>        -0.0735
      5 C5          2.5484    1.1389   -1.7401 C.ar      1 <0>        -0.1283
      6 C6          3.8715    1.5277   -1.6986 C.ar      1 <0>        -0.0658
      7 C7          4.8242    0.6888   -1.1184 C.ar      1 <0>        -0.1116
      8 C8          4.4310   -0.5389   -0.5834 C.ar      1 <0>        -0.0810
      9 C9          3.1038   -0.9131   -0.6263 C.ar      1 <0>        -0.1217
     10 C10         6.2439    1.0988   -1.0709 C.2       1 <0>         0.5438
     11 O1          6.5836    2.1684   -1.5379 O.2       1 <0>        -0.5547
     12 N1          7.1615    0.2865   -0.5099 N.am      1 <0>        -0.6751
     13 C11         8.5683    0.6927   -0.4629 C.3       1 <0>         0.0735
     14 C12         9.2661   -0.0189    0.6979 C.3       1 <0>        -0.0822
     15 C13         8.6637    0.4543    2.0223 C.3       1 <0>        -0.1775
     16 C14         9.3511   -0.2467    3.1657 C.2       1 <0>         0.4913
     17 O2         10.2403   -1.0503    2.9420 O.co2     1 <0>        -0.6983
     18 O3          9.0179   -0.0103    4.3144 O.co2     1 <0>        -0.7185
     19 C15         9.2422    0.3204   -1.7584 C.2       1 <0>         0.4988
     20 O4         10.1725    0.9889   -2.1757 O.co2     1 <0>        -0.7016
     21 O5          8.8571   -0.6492   -2.3892 O.co2     1 <0>        -0.6988
     22 C16        -1.4333   -0.5336    0.0129 C.3       1 <0>        -0.1189
     23 C17        -2.1103   -0.1453    1.3289 C.3       1 <0>         0.1355
     24 C18        -3.5780   -0.5984    1.3118 C.3       1 <0>         0.1244
     25 N2         -3.6044   -2.0666    1.2415 N.pl3     1 <0>        -0.7326
     26 C19        -2.7650   -2.7948    2.0609 C.2       1 <0>         0.3252
     27 C20        -1.6943   -2.1951    2.6594 C.2       1 <0>        -0.0324
     28 C21        -0.8516   -2.9647    3.4867 C.2       1 <0>         0.5355
     29 N3         -1.1201   -4.2679    3.6707 N.2       1 <0>        -0.6275
     30 C22        -2.1561   -4.8354    3.0913 C.2       1 <0>         0.6525
     31 N4         -2.9934   -4.1279    2.2849 N.pl3     1 <0>        -0.6362
     32 N5         -2.3970   -6.1685    3.3042 N.pl3     1 <0>        -0.8272
     33 O6          0.1154   -2.4507    4.0317 O.2       1 <0>        -0.5181
     34 N6         -1.4409   -0.8216    2.4517 N.pl3     1 <0>        -0.7212
     35 H1          1.0039    1.9031    0.0027 H         1 <0>         0.0651
     36 H2         -0.5459    1.8868   -0.8726 H         1 <0>         0.0507
     37 H3         -0.5289    1.8773    0.9072 H         1 <0>         0.0508
     38 H4          0.5293   -0.3651    0.8851 H         1 <0>         0.0801
     39 H5          0.6556   -1.5845   -1.3079 H         1 <0>         0.0663
     40 H6          0.2444   -0.0644   -2.1377 H         1 <0>         0.0673
     41 H7          1.8103    1.7869   -2.1891 H         1 <0>         0.1204
     42 H8          4.1694    2.4788   -2.1146 H         1 <0>         0.1324
     43 H9          5.1633   -1.1925   -0.1331 H         1 <0>         0.1290
     44 H10         2.7974   -1.8609   -0.2088 H         1 <0>         0.1218
     45 H11         6.8905   -0.5670   -0.1372 H         1 <0>         0.3918
     46 H12         8.6304    1.7713   -0.3179 H         1 <0>         0.0777
     47 H13         9.1277   -1.0956    0.5999 H         1 <0>         0.0602
     48 H14        10.3308    0.2137    0.6793 H         1 <0>         0.0725
     49 H15         8.8021    1.5310    2.1203 H         1 <0>         0.0525
     50 H16         7.5990    0.2216    2.0409 H         1 <0>         0.0515
     51 H17        -1.9862   -0.1019   -0.8214 H         1 <0>         0.0646
     52 H18        -1.4207   -1.6194   -0.0826 H         1 <0>         0.0630
     53 H19        -2.0585    0.9349    1.4653 H         1 <0>         0.0987
     54 H20        -4.0765   -0.2648    2.2219 H         1 <0>         0.0660
     55 H21        -4.0821   -0.1794    0.4410 H         1 <0>         0.0911
     56 H22        -4.2039   -2.5181    0.6270 H         1 <0>         0.3974
     57 H23        -1.8066   -6.6827    3.8769 H         1 <0>         0.4304
     58 H24        -3.1579   -6.5973    2.8822 H         1 <0>         0.4075
     59 H25        -0.8393   -0.3345    3.0363 H         1 <0>         0.4110
     60 H26        -3.7519   -4.5667    1.8690 H         1 <0>         0.4081
@<TRIPOS>BOND
     1    1    2 1
     2    1   35 1
     3    1   36 1
     4    1   37 1
     5    2    3 1
     6    2   22 1
     7    2   38 1
     8    3    4 1
     9    3   39 1
    10    3   40 1
    11    4    9 ar
    12    4    5 ar
    13    5    6 ar
    14    5   41 1
    15    6    7 ar
    16    6   42 1
    17    7    8 ar
    18    7   10 1
    19    8    9 ar
    20    8   43 1
    21    9   44 1
    22   10   11 2
    23   10   12 am
    24   12   13 1
    25   12   45 1
    26   13   14 1
    27   13   19 1
    28   13   46 1
    29   14   15 1
    30   14   47 1
    31   14   48 1
    32   15   16 1
    33   15   49 1
    34   15   50 1
    35   16   17 2
    36   16   18 1
    37   19   20 2
    38   19   21 1
    39   22   23 1
    40   22   51 1
    41   22   52 1
    42   23   34 1
    43   23   24 1
    44   23   53 1
    45   24   25 1
    46   24   54 1
    47   24   55 1
    48   25   26 1
    49   25   56 1
    50   26   31 1
    51   26   27 2
    52   27   28 1
    53   27   34 1
    54   28   29 1
    55   28   33 2
    56   29   30 2
    57   30   31 1
    58   30   32 1
    59   31   60 1
    60   32   57 1
    61   32   58 1
    62   34   59 1
@<TRIPOS>MOLECULE
CHEMBL23699__7
   60    62     0     0     0
SMALL
USER_CHARGES

@<TRIPOS>ATOM
      1 C1         -0.0187    1.5258    0.0104 C.3       1 <0>        -0.1515
      2 C2          0.0021   -0.0041    0.0020 C.3       1 <0>        -0.0832
      3 C3          0.7182   -0.4975   -1.2568 C.3       1 <0>        -0.0701
      4 C4          2.1652   -0.0794   -1.2080 C.ar      1 <0>        -0.0730
      5 C5          2.5484    1.1389   -1.7401 C.ar      1 <0>        -0.1279
      6 C6          3.8715    1.5277   -1.6986 C.ar      1 <0>        -0.0656
      7 C7          4.8242    0.6888   -1.1184 C.ar      1 <0>        -0.1097
      8 C8          4.4310   -0.5389   -0.5834 C.ar      1 <0>        -0.0826
      9 C9          3.1038   -0.9131   -0.6263 C.ar      1 <0>        -0.1228
     10 C10         6.2439    1.0988   -1.0709 C.2       1 <0>         0.5508
     11 O1          6.5836    2.1684   -1.5379 O.2       1 <0>        -0.5558
     12 N1          7.1615    0.2865   -0.5099 N.am      1 <0>        -0.6760
     13 C11         8.5683    0.6927   -0.4629 C.3       1 <0>         0.0725
     14 C12         9.2661   -0.0189    0.6979 C.3       1 <0>        -0.0801
     15 C13         8.6637    0.4543    2.0223 C.3       1 <0>        -0.1781
     16 C14         9.3511   -0.2467    3.1657 C.2       1 <0>         0.4911
     17 O2         10.2403   -1.0503    2.9420 O.co2     1 <0>        -0.6976
     18 O3          9.0179   -0.0103    4.3144 O.co2     1 <0>        -0.7197
     19 C15         9.2422    0.3204   -1.7584 C.2       1 <0>         0.4960
     20 O4          8.6063   -0.2329   -2.6393 O.co2     1 <0>        -0.6971
     21 O5         10.4233    0.5726   -1.9256 O.co2     1 <0>        -0.7002
     22 C16        -1.4333   -0.5336    0.0129 C.3       1 <0>        -0.1201
     23 C17        -2.1103   -0.1453    1.3289 C.3       1 <0>         0.1422
     24 C18        -3.5783   -0.5956    1.3099 C.3       1 <0>         0.1182
     25 N2         -3.6113   -2.0625    1.2211 N.pl3     1 <0>        -0.7119
     26 C19        -2.7752   -2.8057    2.0395 C.2       1 <0>         0.3925
     27 C20        -1.6898   -2.1970    2.6541 C.2       1 <0>        -0.0824
     28 C21        -0.8546   -2.9632    3.4739 C.2       1 <0>         0.5388
     29 N3         -1.1381   -4.2738    3.6383 N.am      1 <0>        -0.6498
     30 C22        -2.2163   -4.8234    3.0158 C.2       1 <0>         0.6248
     31 N4         -3.0054   -4.1083    2.2427 N.2       1 <0>        -0.5929
     32 N5         -2.4868   -6.1560    3.1979 N.pl3     1 <0>        -0.8293
     33 O6          0.1099   -2.4585    4.0285 O.2       1 <0>        -0.5414
     34 N6         -1.4405   -0.8219    2.4513 N.pl3     1 <0>        -0.7250
     35 H1          1.0039    1.9031    0.0027 H         1 <0>         0.0640
     36 H2         -0.5459    1.8868   -0.8726 H         1 <0>         0.0509
     37 H3         -0.5289    1.8773    0.9072 H         1 <0>         0.0507
     38 H4          0.5293   -0.3651    0.8851 H         1 <0>         0.0783
     39 H5          0.6556   -1.5845   -1.3079 H         1 <0>         0.0663
     40 H6          0.2444   -0.0644   -2.1377 H         1 <0>         0.0678
     41 H7          1.8103    1.7869   -2.1891 H         1 <0>         0.1206
     42 H8          4.1694    2.4788   -2.1146 H         1 <0>         0.1322
     43 H9          5.1633   -1.1925   -0.1331 H         1 <0>         0.1272
     44 H10         2.7974   -1.8609   -0.2088 H         1 <0>         0.1202
     45 H11         6.8905   -0.5670   -0.1372 H         1 <0>         0.3892
     46 H12         8.6304    1.7713   -0.3179 H         1 <0>         0.0779
     47 H13         9.1277   -1.0956    0.5999 H         1 <0>         0.0547
     48 H14        10.3308    0.2137    0.6793 H         1 <0>         0.0791
     49 H15         8.8021    1.5310    2.1203 H         1 <0>         0.0522
     50 H16         7.5990    0.2216    2.0409 H         1 <0>         0.0502
     51 H17        -1.9862   -0.1019   -0.8214 H         1 <0>         0.0643
     52 H18        -1.4207   -1.6194   -0.0826 H         1 <0>         0.0640
     53 H19        -2.0573    0.9349    1.4654 H         1 <0>         0.0965
     54 H20        -4.0736   -0.2719    2.2253 H         1 <0>         0.0642
     55 H21        -4.0837   -0.1640    0.4460 H         1 <0>         0.0894
     56 H22        -4.2101   -2.5042    0.5988 H         1 <0>         0.4034
     57 H23        -1.9125   -6.6944    3.7648 H         1 <0>         0.4126
     58 H24        -3.2522   -6.5599    2.7599 H         1 <0>         0.4241
     59 H25        -0.8413   -0.3345    3.0381 H         1 <0>         0.4047
     60 H26        -0.5720   -4.8243    4.2017 H         1 <0>         0.4122
@<TRIPOS>BOND
     1    1    2 1
     2    1   35 1
     3    1   36 1
     4    1   37 1
     5    2    3 1
     6    2   22 1
     7    2   38 1
     8    3    4 1
     9    3   39 1
    10    3   40 1
    11    4    9 ar
    12    4    5 ar
    13    5    6 ar
    14    5   41 1
    15    6    7 ar
    16    6   42 1
    17    7    8 ar
    18    7   10 1
    19    8    9 ar
    20    8   43 1
    21    9   44 1
    22   10   11 2
    23   10   12 am
    24   12   13 1
    25   12   45 1
    26   13   14 1
    27   13   19 1
    28   13   46 1
    29   14   15 1
    30   14   47 1
    31   14   48 1
    32   15   16 1
    33   15   49 1
    34   15   50 1
    35   16   17 2
    36   16   18 1
    37   19   20 2
    38   19   21 1
    39   22   23 1
    40   22   51 1
    41   22   52 1
    42   23   34 1
    43   23   24 1
    44   23   53 1
    45   24   25 1
    46   24   54 1
    47   24   55 1
    48   25   26 1
    49   25   56 1
    50   26   31 1
    51   26   27 2
    52   27   28 1
    53   27   34 1
    54   28   29 am
    55   28   33 2
    56   29   30 1
    57   29   60 1
    58   30   31 2
    59   30   32 1
    60   32   57 1
    61   32   58 1
    62   34   59 1
@<TRIPOS>MOLECULE
CHEMBL23699__8
   60    62     0     0     0
SMALL
USER_CHARGES

@<TRIPOS>ATOM
      1 C1         -0.0187    1.5258    0.0104 C.3       1 <0>        -0.1530
      2 C2          0.0021   -0.0041    0.0020 C.3       1 <0>        -0.0840
      3 C3         -1.4333   -0.5336    0.0129 C.3       1 <0>        -0.0692
      4 C4         -2.1001   -0.1511    1.3091 C.ar      1 <0>        -0.0741
      5 C5         -2.0188   -0.9967    2.4012 C.ar      1 <0>        -0.1264
      6 C6         -2.6270   -0.6525    3.5907 C.ar      1 <0>        -0.0630
      7 C7         -3.3253    0.5518    3.6909 C.ar      1 <0>        -0.1096
      8 C8         -3.4035    1.4003    2.5854 C.ar      1 <0>        -0.0846
      9 C9         -2.7860    1.0468    1.4034 C.ar      1 <0>        -0.1237
     10 C10        -3.9799    0.9269    4.9624 C.2       1 <0>         0.5481
     11 O1         -3.9105    0.1858    5.9234 O.2       1 <0>        -0.5550
     12 N1         -4.6535    2.0905    5.0560 N.am      1 <0>        -0.6751
     13 C11        -5.3021    2.4622    6.3159 C.3       1 <0>         0.0726
     14 C12        -6.4585    3.4224    6.0303 C.3       1 <0>        -0.0809
     15 C13        -7.5347    2.6979    5.2194 C.3       1 <0>        -0.1775
     16 C14        -8.6737    3.6437    4.9382 C.2       1 <0>         0.4912
     17 O2         -8.6288    4.7910    5.3483 O.co2     1 <0>        -0.6973
     18 O3         -9.6401    3.2616    4.3005 O.co2     1 <0>        -0.7203
     19 C15        -4.2999    3.1366    7.2170 C.2       1 <0>         0.4970
     20 O4         -3.2071    3.4568    6.7814 O.co2     1 <0>        -0.6973
     21 O5         -4.5820    3.3620    8.3815 O.co2     1 <0>        -0.7012
     22 C16         0.7182   -0.4975   -1.2568 C.3       1 <0>        -0.1188
     23 C17         2.1873   -0.0730   -1.2073 C.3       1 <0>         0.1351
     24 C18         2.8928   -0.4897   -2.5067 C.3       1 <0>         0.1239
     25 N2          2.8806   -1.9576   -2.5854 N.pl3     1 <0>        -0.7319
     26 C19         3.2104   -2.6943   -1.4653 C.2       1 <0>         0.3256
     27 C20         3.2020   -2.1128   -0.2299 C.2       1 <0>        -0.0326
     28 C21         3.5381   -2.8909    0.8962 C.2       1 <0>         0.5363
     29 N3          3.8613   -4.1842    0.7310 N.2       1 <0>        -0.6292
     30 C22         3.8689   -4.7341   -0.4642 C.2       1 <0>         0.6525
     31 N4          3.5500   -4.0179   -1.5765 N.pl3     1 <0>        -0.6355
     32 N5          4.2058   -6.0573   -0.5918 N.pl3     1 <0>        -0.8275
     33 O6          3.5359   -2.3930    2.0136 O.2       1 <0>        -0.5219
     34 N6          2.8636   -0.7493   -0.0884 N.pl3     1 <0>        -0.7209
     35 H1          1.0039    1.9031    0.0027 H         1 <0>         0.0508
     36 H2         -0.5459    1.8868   -0.8726 H         1 <0>         0.0519
     37 H3         -0.5289    1.8773    0.9072 H         1 <0>         0.0663
     38 H4          0.5293   -0.3651    0.8851 H         1 <0>         0.0787
     39 H5         -1.9862   -0.1019   -0.8214 H         1 <0>         0.0683
     40 H6         -1.4207   -1.6194   -0.0826 H         1 <0>         0.0651
     41 H7         -1.4784   -1.9284    2.3222 H         1 <0>         0.1195
     42 H8         -2.5631   -1.3136    4.4423 H         1 <0>         0.1326
     43 H9         -3.9424    2.3336    2.6565 H         1 <0>         0.1280
     44 H10        -2.8420    1.7044    0.5486 H         1 <0>         0.1221
     45 H11        -4.7089    2.6819    4.2891 H         1 <0>         0.3896
     46 H12        -5.6857    1.5668    6.8050 H         1 <0>         0.0779
     47 H13        -6.8845    3.7684    6.9721 H         1 <0>         0.0770
     48 H14        -6.0896    4.2768    5.4629 H         1 <0>         0.0563
     49 H15        -7.1087    2.3519    4.2776 H         1 <0>         0.0504
     50 H16        -7.9036    1.8435    5.7869 H         1 <0>         0.0526
     51 H17         0.6556   -1.5845   -1.3079 H         1 <0>         0.0622
     52 H18         0.2444   -0.0644   -2.1377 H         1 <0>         0.0656
     53 H19         2.2548    1.0074   -1.0801 H         1 <0>         0.0999
     54 H20         2.3637   -0.0711   -3.3629 H         1 <0>         0.0922
     55 H21         3.9218   -0.1303   -2.4980 H         1 <0>         0.0665
     56 H22         2.6442   -2.4030   -3.4141 H         1 <0>         0.3977
     57 H23         4.4352   -6.5774    0.1942 H         1 <0>         0.4298
     58 H24         4.2147   -6.4732   -1.4681 H         1 <0>         0.4078
     59 H25         3.0719   -0.2690    0.7282 H         1 <0>         0.4109
     60 H26         3.5627   -4.4439   -2.4479 H         1 <0>         0.4086
@<TRIPOS>BOND
     1    1    2 1
     2    1   35 1
     3    1   36 1
     4    1   37 1
     5    2    3 1
     6    2   22 1
     7    2   38 1
     8    3    4 1
     9    3   39 1
    10    3   40 1
    11    4    9 ar
    12    4    5 ar
    13    5    6 ar
    14    5   41 1
    15    6    7 ar
    16    6   42 1
    17    7    8 ar
    18    7   10 1
    19    8    9 ar
    20    8   43 1
    21    9   44 1
    22   10   11 2
    23   10   12 am
    24   12   13 1
    25   12   45 1
    26   13   14 1
    27   13   19 1
    28   13   46 1
    29   14   15 1
    30   14   47 1
    31   14   48 1
    32   15   16 1
    33   15   49 1
    34   15   50 1
    35   16   17 2
    36   16   18 1
    37   19   20 2
    38   19   21 1
    39   22   23 1
    40   22   51 1
    41   22   52 1
    42   23   34 1
    43   23   24 1
    44   23   53 1
    45   24   25 1
    46   24   54 1
    47   24   55 1
    48   25   26 1
    49   25   56 1
    50   26   31 1
    51   26   27 2
    52   27   28 1
    53   27   34 1
    54   28   29 1
    55   28   33 2
    56   29   30 2
    57   30   31 1
    58   30   32 1
    59   31   60 1
    60   32   57 1
    61   32   58 1
    62   34   59 1
@<TRIPOS>MOLECULE
CHEMBL23699__9
   60    62     0     0     0
SMALL
USER_CHARGES

@<TRIPOS>ATOM
      1 C1         -0.0187    1.5258    0.0104 C.3       1 <0>        -0.1531
      2 C2          0.0021   -0.0041    0.0020 C.3       1 <0>        -0.0824
      3 C3         -1.4333   -0.5336    0.0129 C.3       1 <0>        -0.0704
      4 C4         -2.1001   -0.1511    1.3091 C.ar      1 <0>        -0.0719
      5 C5         -2.0188   -0.9967    2.4012 C.ar      1 <0>        -0.1274
      6 C6         -2.6270   -0.6525    3.5907 C.ar      1 <0>        -0.0634
      7 C7         -3.3253    0.5518    3.6909 C.ar      1 <0>        -0.1121
      8 C8         -3.4035    1.4003    2.5854 C.ar      1 <0>        -0.0837
      9 C9         -2.7860    1.0468    1.4034 C.ar      1 <0>        -0.1233
     10 C10        -3.9799    0.9269    4.9624 C.2       1 <0>         0.5436
     11 O1         -3.9105    0.1858    5.9234 O.2       1 <0>        -0.5537
     12 N1         -4.6535    2.0905    5.0560 N.am      1 <0>        -0.6755
     13 C11        -5.3021    2.4622    6.3159 C.3       1 <0>         0.0736
     14 C12        -6.4585    3.4224    6.0303 C.3       1 <0>        -0.0822
     15 C13        -7.5347    2.6979    5.2194 C.3       1 <0>        -0.1772
     16 C14        -8.6737    3.6437    4.9382 C.2       1 <0>         0.4913
     17 O2         -8.6288    4.7910    5.3483 O.co2     1 <0>        -0.6975
     18 O3         -9.6401    3.2616    4.3005 O.co2     1 <0>        -0.7198
     19 C15        -4.2999    3.1366    7.2170 C.2       1 <0>         0.4984
     20 O4         -3.3807    3.7765    6.7352 O.co2     1 <0>        -0.6984
     21 O5         -4.4084    3.0423    8.4277 O.co2     1 <0>        -0.7013
     22 C16         0.7182   -0.4975   -1.2568 C.3       1 <0>        -0.1200
     23 C17         2.1873   -0.0730   -1.2073 C.3       1 <0>         0.1417
     24 C18         2.8912   -0.4869   -2.5079 C.3       1 <0>         0.1176
     25 N2          2.8660   -1.9537   -2.6013 N.pl3     1 <0>        -0.7109
     26 C19         3.1969   -2.7053   -1.4847 C.2       1 <0>         0.3929
     27 C20         3.1952   -2.1149   -0.2287 C.2       1 <0>        -0.0817
     28 C21         3.5283   -2.8895    0.8874 C.2       1 <0>         0.5389
     29 N3          3.8419   -4.1901    0.6995 N.am      1 <0>        -0.6499
     30 C22         3.8316   -4.7217   -0.5533 C.2       1 <0>         0.6233
     31 N4          3.5184   -3.9986   -1.6071 N.2       1 <0>        -0.5913
     32 N5          4.1558   -6.0442   -0.7216 N.pl3     1 <0>        -0.8297
     33 O6          3.5360   -2.4007    2.0070 O.2       1 <0>        -0.5450
     34 N6          2.8630   -0.7495   -0.0883 N.pl3     1 <0>        -0.7248
     35 H1          1.0039    1.9031    0.0027 H         1 <0>         0.0510
     36 H2         -0.5459    1.8868   -0.8726 H         1 <0>         0.0523
     37 H3         -0.5289    1.8773    0.9072 H         1 <0>         0.0651
     38 H4          0.5293   -0.3651    0.8851 H         1 <0>         0.0770
     39 H5         -1.9862   -0.1019   -0.8214 H         1 <0>         0.0691
     40 H6         -1.4207   -1.6194   -0.0826 H         1 <0>         0.0655
     41 H7         -1.4784   -1.9284    2.3222 H         1 <0>         0.1187
     42 H8         -2.5631   -1.3136    4.4423 H         1 <0>         0.1321
     43 H9         -3.9424    2.3336    2.6565 H         1 <0>         0.1287
     44 H10        -2.8420    1.7044    0.5486 H         1 <0>         0.1230
     45 H11        -4.7089    2.6819    4.2891 H         1 <0>         0.3912
     46 H12        -5.6857    1.5668    6.8050 H         1 <0>         0.0775
     47 H13        -6.8845    3.7684    6.9721 H         1 <0>         0.0726
     48 H14        -6.0896    4.2768    5.4629 H         1 <0>         0.0601
     49 H15        -7.1087    2.3519    4.2776 H         1 <0>         0.0510
     50 H16        -7.9036    1.8435    5.7869 H         1 <0>         0.0526
     51 H17         0.6556   -1.5845   -1.3079 H         1 <0>         0.0632
     52 H18         0.2444   -0.0644   -2.1377 H         1 <0>         0.0654
     53 H19         2.2544    1.0073   -1.0790 H         1 <0>         0.0978
     54 H20         2.3685   -0.0556   -3.3616 H         1 <0>         0.0906
     55 H21         3.9236   -0.1375   -2.4939 H         1 <0>         0.0648
     56 H22         2.6210   -2.3894   -3.4325 H         1 <0>         0.4038
     57 H23         4.3885   -6.5881    0.0471 H         1 <0>         0.4120
     58 H24         4.1523   -6.4352   -1.6092 H         1 <0>         0.4244
     59 H25         3.0756   -0.2685    0.7267 H         1 <0>         0.4046
     60 H26         4.0751   -4.7462    1.4593 H         1 <0>         0.4111
@<TRIPOS>BOND
     1    1    2 1
     2    1   35 1
     3    1   36 1
     4    1   37 1
     5    2    3 1
     6    2   22 1
     7    2   38 1
     8    3    4 1
     9    3   39 1
    10    3   40 1
    11    4    9 ar
    12    4    5 ar
    13    5    6 ar
    14    5   41 1
    15    6    7 ar
    16    6   42 1
    17    7    8 ar
    18    7   10 1
    19    8    9 ar
    20    8   43 1
    21    9   44 1
    22   10   11 2
    23   10   12 am
    24   12   13 1
    25   12   45 1
    26   13   14 1
    27   13   19 1
    28   13   46 1
    29   14   15 1
    30   14   47 1
    31   14   48 1
    32   15   16 1
    33   15   49 1
    34   15   50 1
    35   16   17 2
    36   16   18 1
    37   19   20 2
    38   19   21 1
    39   22   23 1
    40   22   51 1
    41   22   52 1
    42   23   34 1
    43   23   24 1
    44   23   53 1
    45   24   25 1
    46   24   54 1
    47   24   55 1
    48   25   26 1
    49   25   56 1
    50   26   31 1
    51   26   27 2
    52   27   28 1
    53   27   34 1
    54   28   29 am
    55   28   33 2
    56   29   30 1
    57   29   60 1
    58   30   31 2
    59   30   32 1
    60   32   57 1
    61   32   58 1
    62   34   59 1
@<TRIPOS>MOLECULE
CHEMBL23699__10
   60    62     0     0     0
SMALL
USER_CHARGES

@<TRIPOS>ATOM
      1 C1          0.0049    1.5187    0.0319 C.3       1 <0>        -0.1478
      2 C2         -0.1029   -0.0052   -0.0510 C.3       1 <0>        -0.0840
      3 C3         -1.5774   -0.4101   -0.1026 C.3       1 <0>        -0.0723
      4 C4         -2.2476   -0.0329    1.1934 C.ar      1 <0>        -0.0746
      5 C5         -2.2701   -0.9324    2.2444 C.ar      1 <0>        -0.1266
      6 C6         -2.8819   -0.5934    3.4335 C.ar      1 <0>        -0.0632
      7 C7         -3.4791    0.6602    3.5749 C.ar      1 <0>        -0.1097
      8 C8         -3.4529    1.5629    2.5107 C.ar      1 <0>        -0.0845
      9 C9         -2.8328    1.2135    1.3289 C.ar      1 <0>        -0.1237
     10 C10        -4.1370    1.0300    4.8462 C.2       1 <0>         0.5480
     11 O1         -4.1587    0.2417    5.7711 O.2       1 <0>        -0.5550
     12 N1         -4.7128    2.2413    4.9795 N.am      1 <0>        -0.6752
     13 C11        -5.3647    2.6078    6.2392 C.3       1 <0>         0.0726
     14 C12        -6.4273    3.6757    5.9718 C.3       1 <0>        -0.0809
     15 C13        -7.5363    3.0844    5.0992 C.3       1 <0>        -0.1775
     16 C14        -8.5828    4.1362    4.8357 C.2       1 <0>         0.4913
     17 O2         -8.4537    5.2550    5.3026 O.co2     1 <0>        -0.6974
     18 O3         -9.5587    3.8683    4.1557 O.co2     1 <0>        -0.7203
     19 C15        -4.3364    3.1513    7.1975 C.2       1 <0>         0.4969
     20 O4         -3.2082    3.3969    6.8061 O.co2     1 <0>        -0.6973
     21 O5         -4.6327    3.3453    8.3641 O.co2     1 <0>        -0.7012
     22 C16         0.6061   -0.4987   -1.3138 C.3       1 <0>        -0.1188
     23 C17         0.6268   -2.0285   -1.3222 C.3       1 <0>         0.1337
     24 C18         1.2676   -2.5325   -2.6243 C.3       1 <0>         0.1237
     25 N2          2.6699   -2.0918   -2.6464 N.pl3     1 <0>        -0.7319
     26 C19         3.4387   -2.2362   -1.5087 C.2       1 <0>         0.3254
     27 C20         2.8451   -2.4442   -0.2968 C.2       1 <0>        -0.0323
     28 C21         3.6552   -2.5828    0.8483 C.2       1 <0>         0.5362
     29 N3          4.9906   -2.5103    0.7236 N.2       1 <0>        -0.6294
     30 C22         5.5525   -2.3122   -0.4494 C.2       1 <0>         0.6524
     31 N4          4.8064   -2.1726   -1.5788 N.pl3     1 <0>        -0.6354
     32 N5          6.9196   -2.2445   -0.5357 N.pl3     1 <0>        -0.8276
     33 O6          3.1467   -2.7672    1.9456 O.2       1 <0>        -0.5217
     34 N6          1.4387   -2.5217   -0.1980 N.pl3     1 <0>        -0.7204
     35 H1          1.0522    1.8131   -0.0360 H         1 <0>         0.0468
     36 H2         -0.5527    1.9677   -0.7900 H         1 <0>         0.0511
     37 H3         -0.4079    1.8611    0.9808 H         1 <0>         0.0647
     38 H4          0.3658   -0.4509    0.8264 H         1 <0>         0.0790
     39 H5         -2.0672    0.1058   -0.9285 H         1 <0>         0.0695
     40 H6         -1.6534   -1.4873   -0.2509 H         1 <0>         0.0687
     41 H7         -1.8079   -1.9022    2.1336 H         1 <0>         0.1206
     42 H8         -2.8991   -1.2966    4.2531 H         1 <0>         0.1327
     43 H9         -3.9132    2.5345    2.6137 H         1 <0>         0.1275
     44 H10        -2.8080    1.9127    0.5061 H         1 <0>         0.1215
     45 H11        -4.6955    2.8704    4.2414 H         1 <0>         0.3895
     46 H12        -5.8366    1.7266    6.6739 H         1 <0>         0.0781
     47 H13        -6.8503    4.0124    6.9182 H         1 <0>         0.0770
     48 H14        -5.9712    4.5210    5.4564 H         1 <0>         0.0562
     49 H15        -7.1133    2.7476    4.1527 H         1 <0>         0.0504
     50 H16        -7.9923    2.2391    5.6145 H         1 <0>         0.0526
     51 H17         0.0738   -0.1377   -2.1939 H         1 <0>         0.0658
     52 H18         1.6286   -0.1214   -1.3275 H         1 <0>         0.0630
     53 H19        -0.3903   -2.4115   -1.2385 H         1 <0>         0.1002
     54 H20         1.2235   -3.6210   -2.6585 H         1 <0>         0.0669
     55 H21         0.7374   -2.1153   -3.4805 H         1 <0>         0.0924
     56 H22         3.0503   -1.7042   -3.4502 H         1 <0>         0.3976
     57 H23         7.4614   -2.3423    0.2629 H         1 <0>         0.4297
     58 H24         7.3446   -2.0988   -1.3953 H         1 <0>         0.4077
     59 H25         1.0170   -2.8921    0.5931 H         1 <0>         0.4109
     60 H26         5.2422   -2.0284   -2.4334 H         1 <0>         0.4085
@<TRIPOS>BOND
     1    1    2 1
     2    1   35 1
     3    1   36 1
     4    1   37 1
     5    2    3 1
     6    2   22 1
     7    2   38 1
     8    3    4 1
     9    3   39 1
    10    3   40 1
    11    4    9 ar
    12    4    5 ar
    13    5    6 ar
    14    5   41 1
    15    6    7 ar
    16    6   42 1
    17    7    8 ar
    18    7   10 1
    19    8    9 ar
    20    8   43 1
    21    9   44 1
    22   10   11 2
    23   10   12 am
    24   12   13 1
    25   12   45 1
    26   13   14 1
    27   13   19 1
    28   13   46 1
    29   14   15 1
    30   14   47 1
    31   14   48 1
    32   15   16 1
    33   15   49 1
    34   15   50 1
    35   16   17 2
    36   16   18 1
    37   19   20 2
    38   19   21 1
    39   22   23 1
    40   22   51 1
    41   22   52 1
    42   23   34 1
    43   23   24 1
    44   23   53 1
    45   24   25 1
    46   24   54 1
    47   24   55 1
    48   25   26 1
    49   25   56 1
    50   26   31 1
    51   26   27 2
    52   27   28 1
    53   27   34 1
    54   28   29 1
    55   28   33 2
    56   29   30 2
    57   30   31 1
    58   30   32 1
    59   31   60 1
    60   32   57 1
    61   32   58 1
    62   34   59 1
@<TRIPOS>MOLECULE
CHEMBL23699__11
   60    62     0     0     0
SMALL
USER_CHARGES

@<TRIPOS>ATOM
      1 C1          0.0048    1.5187    0.0319 C.3       1 <0>        -0.1481
      2 C2         -0.1030   -0.0052   -0.0511 C.3       1 <0>        -0.0825
      3 C3         -1.5776   -0.4101   -0.1029 C.3       1 <0>        -0.0733
      4 C4         -2.2479   -0.0329    1.1930 C.ar      1 <0>        -0.0726
      5 C5         -2.2706   -0.9324    2.2440 C.ar      1 <0>        -0.1273
      6 C6         -2.8826   -0.5934    3.4330 C.ar      1 <0>        -0.0635
      7 C7         -3.4798    0.6602    3.5743 C.ar      1 <0>        -0.1121
      8 C8         -3.4534    1.5630    2.5101 C.ar      1 <0>        -0.0840
      9 C9         -2.8331    1.2135    1.3284 C.ar      1 <0>        -0.1235
     10 C10        -4.1378    1.0301    4.8455 C.2       1 <0>         0.5434
     11 O1         -4.1596    0.2417    5.7705 O.2       1 <0>        -0.5536
     12 N1         -4.7136    2.2413    4.9788 N.am      1 <0>        -0.6757
     13 C11        -5.3657    2.6078    6.2385 C.3       1 <0>         0.0736
     14 C12        -6.4282    3.6757    5.9709 C.3       1 <0>        -0.0822
     15 C13        -7.5370    3.0845    5.0981 C.3       1 <0>        -0.1772
     16 C14        -8.5836    4.1363    4.8345 C.2       1 <0>         0.4913
     17 O2         -8.4545    5.2552    5.3015 O.co2     1 <0>        -0.6977
     18 O3         -9.5593    3.8685    4.1544 O.co2     1 <0>        -0.7196
     19 C15        -4.3375    3.1513    7.1969 C.2       1 <0>         0.4984
     20 O4         -3.3538    3.7320    6.7708 O.co2     1 <0>        -0.6987
     21 O5         -4.4893    3.0101    8.3983 O.co2     1 <0>        -0.7013
     22 C16         0.6061   -0.4987   -1.3138 C.3       1 <0>        -0.1201
     23 C17         0.6268   -2.0285   -1.3222 C.3       1 <0>         0.1403
     24 C18         1.2645   -2.5317   -2.6255 C.3       1 <0>         0.1174
     25 N2          2.6623   -2.0784   -2.6620 N.pl3     1 <0>        -0.7109
     26 C19         3.4457   -2.2193   -1.5273 C.2       1 <0>         0.3926
     27 C20         2.8451   -2.4371   -0.2953 C.2       1 <0>        -0.0814
     28 C21         3.6512   -2.5736    0.8397 C.2       1 <0>         0.5388
     29 N3          4.9915   -2.4887    0.6930 N.am      1 <0>        -0.6499
     30 C22         5.5324   -2.2767   -0.5378 C.2       1 <0>         0.6231
     31 N4          4.7796   -2.1467   -1.6092 N.2       1 <0>        -0.5914
     32 N5          6.8961   -2.1956   -0.6644 N.pl3     1 <0>        -0.8298
     33 O6          3.1543   -2.7648    1.9393 O.2       1 <0>        -0.5448
     34 N6          1.4388   -2.5211   -0.1978 N.pl3     1 <0>        -0.7242
     35 H1          1.0521    1.8131   -0.0359 H         1 <0>         0.0469
     36 H2         -0.5527    1.9677   -0.7902 H         1 <0>         0.0517
     37 H3         -0.4081    1.8611    0.9807 H         1 <0>         0.0634
     38 H4          0.3655   -0.4509    0.8264 H         1 <0>         0.0773
     39 H5         -2.0672    0.1059   -0.9289 H         1 <0>         0.0701
     40 H6         -1.6536   -1.4872   -0.2513 H         1 <0>         0.0692
     41 H7         -1.8084   -1.9022    2.1332 H         1 <0>         0.1205
     42 H8         -2.8998   -1.2966    4.2526 H         1 <0>         0.1324
     43 H9         -3.9137    2.5345    2.6131 H         1 <0>         0.1282
     44 H10        -2.8082    1.9128    0.5057 H         1 <0>         0.1222
     45 H11        -4.6962    2.8705    4.2407 H         1 <0>         0.3911
     46 H12        -5.8376    1.7266    6.6731 H         1 <0>         0.0777
     47 H13        -6.8513    4.0125    6.9173 H         1 <0>         0.0726
     48 H14        -5.9720    4.5210    5.4556 H         1 <0>         0.0600
     49 H15        -7.1139    2.7478    4.1517 H         1 <0>         0.0511
     50 H16        -7.9932    2.2392    5.6134 H         1 <0>         0.0527
     51 H17         0.0739   -0.1377   -2.1939 H         1 <0>         0.0656
     52 H18         1.6286   -0.1214   -1.3273 H         1 <0>         0.0641
     53 H19        -0.3903   -2.4111   -1.2374 H         1 <0>         0.0980
     54 H20         1.2308   -3.6208   -2.6542 H         1 <0>         0.0652
     55 H21         0.7239   -2.1244   -3.4799 H         1 <0>         0.0908
     56 H22         3.0313   -1.6864   -3.4689 H         1 <0>         0.4037
     57 H23         7.4622   -2.2890    0.1178 H         1 <0>         0.4119
     58 H24         7.2942   -2.0447   -1.5360 H         1 <0>         0.4244
     59 H25         1.0176   -2.8945    0.5921 H         1 <0>         0.4047
     60 H26         5.5697   -2.5795    1.4665 H         1 <0>         0.4110
@<TRIPOS>BOND
     1    1    2 1
     2    1   35 1
     3    1   36 1
     4    1   37 1
     5    2    3 1
     6    2   22 1
     7    2   38 1
     8    3    4 1
     9    3   39 1
    10    3   40 1
    11    4    9 ar
    12    4    5 ar
    13    5    6 ar
    14    5   41 1
    15    6    7 ar
    16    6   42 1
    17    7    8 ar
    18    7   10 1
    19    8    9 ar
    20    8   43 1
    21    9   44 1
    22   10   11 2
    23   10   12 am
    24   12   13 1
    25   12   45 1
    26   13   14 1
    27   13   19 1
    28   13   46 1
    29   14   15 1
    30   14   47 1
    31   14   48 1
    32   15   16 1
    33   15   49 1
    34   15   50 1
    35   16   17 2
    36   16   18 1
    37   19   20 2
    38   19   21 1
    39   22   23 1
    40   22   51 1
    41   22   52 1
    42   23   34 1
    43   23   24 1
    44   23   53 1
    45   24   25 1
    46   24   54 1
    47   24   55 1
    48   25   26 1
    49   25   56 1
    50   26   31 1
    51   26   27 2
    52   27   28 1
    53   27   34 1
    54   28   29 am
    55   28   33 2
    56   29   30 1
    57   29   60 1
    58   30   31 2
    59   30   32 1
    60   32   57 1
    61   32   58 1
    62   34   59 1
@<TRIPOS>MOLECULE
CHEMBL23699__12
   60    62     0     0     0
SMALL
USER_CHARGES

@<TRIPOS>ATOM
      1 C1         -0.0187    1.5258    0.0104 C.3       1 <0>        -0.1531
      2 C2          0.0021   -0.0041    0.0020 C.3       1 <0>        -0.0838
      3 C3         -1.4333   -0.5336    0.0129 C.3       1 <0>        -0.0695
      4 C4         -2.1001   -0.1511    1.3091 C.ar      1 <0>        -0.0733
      5 C5         -2.0188   -0.9967    2.4012 C.ar      1 <0>        -0.1265
      6 C6         -2.6270   -0.6525    3.5907 C.ar      1 <0>        -0.0627
      7 C7         -3.3253    0.5518    3.6909 C.ar      1 <0>        -0.1115
      8 C8         -3.4035    1.4003    2.5854 C.ar      1 <0>        -0.0841
      9 C9         -2.7860    1.0468    1.4034 C.ar      1 <0>        -0.1236
     10 C10        -3.9799    0.9269    4.9624 C.2       1 <0>         0.5435
     11 O1         -3.9105    0.1858    5.9234 O.2       1 <0>        -0.5528
     12 N1         -4.6535    2.0905    5.0560 N.am      1 <0>        -0.6757
     13 C11        -5.3021    2.4622    6.3159 C.3       1 <0>         0.0736
     14 C12        -5.4379    3.9843    6.3900 C.3       1 <0>        -0.0820
     15 C13        -4.0467    4.6183    6.4485 C.3       1 <0>        -0.1773
     16 C14        -4.1805    6.1175    6.5215 C.2       1 <0>         0.4914
     17 O2         -5.2861    6.6314    6.5262 O.co2     1 <0>        -0.6979
     18 O3         -3.1831    6.8166    6.5758 O.co2     1 <0>        -0.7194
     19 C15        -6.6694    1.8320    6.3820 C.2       1 <0>         0.4986
     20 O4         -7.1510    1.5323    7.4612 O.co2     1 <0>        -0.7012
     21 O5         -7.2941    1.6219    5.3562 O.co2     1 <0>        -0.6992
     22 C16         0.7182   -0.4975   -1.2568 C.3       1 <0>        -0.1188
     23 C17         2.1873   -0.0730   -1.2073 C.3       1 <0>         0.1350
     24 C18         2.8928   -0.4897   -2.5067 C.3       1 <0>         0.1238
     25 N2          2.8806   -1.9576   -2.5854 N.pl3     1 <0>        -0.7319
     26 C19         3.2104   -2.6943   -1.4653 C.2       1 <0>         0.3259
     27 C20         3.2020   -2.1128   -0.2299 C.2       1 <0>        -0.0327
     28 C21         3.5381   -2.8909    0.8962 C.2       1 <0>         0.5365
     29 N3          3.8613   -4.1842    0.7310 N.2       1 <0>        -0.6294
     30 C22         3.8689   -4.7341   -0.4642 C.2       1 <0>         0.6526
     31 N4          3.5500   -4.0179   -1.5765 N.pl3     1 <0>        -0.6354
     32 N5          4.2058   -6.0573   -0.5918 N.pl3     1 <0>        -0.8274
     33 O6          3.5359   -2.3930    2.0136 O.2       1 <0>        -0.5226
     34 N6          2.8636   -0.7493   -0.0884 N.pl3     1 <0>        -0.7209
     35 H1          1.0039    1.9031    0.0027 H         1 <0>         0.0511
     36 H2         -0.5459    1.8868   -0.8726 H         1 <0>         0.0521
     37 H3         -0.5289    1.8773    0.9072 H         1 <0>         0.0661
     38 H4          0.5293   -0.3651    0.8851 H         1 <0>         0.0786
     39 H5         -1.9862   -0.1019   -0.8214 H         1 <0>         0.0684
     40 H6         -1.4207   -1.6194   -0.0826 H         1 <0>         0.0652
     41 H7         -1.4784   -1.9284    2.3222 H         1 <0>         0.1198
     42 H8         -2.5631   -1.3136    4.4423 H         1 <0>         0.1329
     43 H9         -3.9424    2.3336    2.6565 H         1 <0>         0.1286
     44 H10        -2.8420    1.7044    0.5486 H         1 <0>         0.1224
     45 H11        -4.7089    2.6819    4.2891 H         1 <0>         0.3910
     46 H12        -4.6989    2.1101    7.1527 H         1 <0>         0.0778
     47 H13        -5.9649    4.3455    5.5068 H         1 <0>         0.0599
     48 H14        -5.9989    4.2560    7.2842 H         1 <0>         0.0725
     49 H15        -3.5197    4.2571    7.3317 H         1 <0>         0.0529
     50 H16        -3.4857    4.3466    5.5543 H         1 <0>         0.0511
     51 H17         0.6556   -1.5845   -1.3079 H         1 <0>         0.0622
     52 H18         0.2444   -0.0644   -2.1377 H         1 <0>         0.0656
     53 H19         2.2548    1.0074   -1.0801 H         1 <0>         0.1001
     54 H20         2.3637   -0.0711   -3.3629 H         1 <0>         0.0922
     55 H21         3.9218   -0.1303   -2.4980 H         1 <0>         0.0666
     56 H22         2.6442   -2.4030   -3.4141 H         1 <0>         0.3977
     57 H23         4.4352   -6.5774    0.1942 H         1 <0>         0.4298
     58 H24         4.2147   -6.4732   -1.4681 H         1 <0>         0.4078
     59 H25         3.0719   -0.2690    0.7282 H         1 <0>         0.4107
     60 H26         3.5627   -4.4439   -2.4479 H         1 <0>         0.4086
@<TRIPOS>BOND
     1    1    2 1
     2    1   35 1
     3    1   36 1
     4    1   37 1
     5    2    3 1
     6    2   22 1
     7    2   38 1
     8    3    4 1
     9    3   39 1
    10    3   40 1
    11    4    9 ar
    12    4    5 ar
    13    5    6 ar
    14    5   41 1
    15    6    7 ar
    16    6   42 1
    17    7    8 ar
    18    7   10 1
    19    8    9 ar
    20    8   43 1
    21    9   44 1
    22   10   11 2
    23   10   12 am
    24   12   13 1
    25   12   45 1
    26   13   14 1
    27   13   19 1
    28   13   46 1
    29   14   15 1
    30   14   47 1
    31   14   48 1
    32   15   16 1
    33   15   49 1
    34   15   50 1
    35   16   17 2
    36   16   18 1
    37   19   20 2
    38   19   21 1
    39   22   23 1
    40   22   51 1
    41   22   52 1
    42   23   34 1
    43   23   24 1
    44   23   53 1
    45   24   25 1
    46   24   54 1
    47   24   55 1
    48   25   26 1
    49   25   56 1
    50   26   31 1
    51   26   27 2
    52   27   28 1
    53   27   34 1
    54   28   29 1
    55   28   33 2
    56   29   30 2
    57   30   31 1
    58   30   32 1
    59   31   60 1
    60   32   57 1
    61   32   58 1
    62   34   59 1
@<TRIPOS>MOLECULE
CHEMBL23699__13
   60    62     0     0     0
SMALL
USER_CHARGES

@<TRIPOS>ATOM
      1 C1         -0.0187    1.5258    0.0104 C.3       1 <0>        -0.1530
      2 C2          0.0021   -0.0041    0.0020 C.3       1 <0>        -0.0822
      3 C3         -1.4333   -0.5336    0.0129 C.3       1 <0>        -0.0702
      4 C4         -2.1001   -0.1511    1.3091 C.ar      1 <0>        -0.0729
      5 C5         -2.0188   -0.9967    2.4012 C.ar      1 <0>        -0.1273
      6 C6         -2.6270   -0.6525    3.5907 C.ar      1 <0>        -0.0636
      7 C7         -3.3253    0.5518    3.6909 C.ar      1 <0>        -0.1096
      8 C8         -3.4035    1.4003    2.5854 C.ar      1 <0>        -0.0847
      9 C9         -2.7860    1.0468    1.4034 C.ar      1 <0>        -0.1235
     10 C10        -3.9799    0.9269    4.9624 C.2       1 <0>         0.5506
     11 O1         -3.9105    0.1858    5.9234 O.2       1 <0>        -0.5552
     12 N1         -4.6535    2.0905    5.0560 N.am      1 <0>        -0.6760
     13 C11        -5.3021    2.4622    6.3159 C.3       1 <0>         0.0725
     14 C12        -5.4379    3.9843    6.3900 C.3       1 <0>        -0.0802
     15 C13        -4.0467    4.6183    6.4485 C.3       1 <0>        -0.1779
     16 C14        -4.1805    6.1175    6.5215 C.2       1 <0>         0.4911
     17 O2         -5.2861    6.6314    6.5262 O.co2     1 <0>        -0.6973
     18 O3         -3.1831    6.8166    6.5758 O.co2     1 <0>        -0.7201
     19 C15        -6.6694    1.8320    6.3820 C.2       1 <0>         0.4958
     20 O4         -7.0654    1.1369    5.4619 O.co2     1 <0>        -0.6971
     21 O5         -7.3796    2.0173    7.3555 O.co2     1 <0>        -0.7002
     22 C16         0.7182   -0.4975   -1.2568 C.3       1 <0>        -0.1200
     23 C17         2.1873   -0.0730   -1.2073 C.3       1 <0>         0.1416
     24 C18         2.8912   -0.4869   -2.5079 C.3       1 <0>         0.1175
     25 N2          2.8660   -1.9537   -2.6013 N.pl3     1 <0>        -0.7109
     26 C19         3.1969   -2.7053   -1.4847 C.2       1 <0>         0.3930
     27 C20         3.1952   -2.1149   -0.2287 C.2       1 <0>        -0.0817
     28 C21         3.5283   -2.8895    0.8874 C.2       1 <0>         0.5390
     29 N3          3.8419   -4.1901    0.6995 N.am      1 <0>        -0.6498
     30 C22         3.8316   -4.7217   -0.5533 C.2       1 <0>         0.6232
     31 N4          3.5184   -3.9986   -1.6071 N.2       1 <0>        -0.5912
     32 N5          4.1558   -6.0442   -0.7216 N.pl3     1 <0>        -0.8298
     33 O6          3.5360   -2.4007    2.0070 O.2       1 <0>        -0.5455
     34 N6          2.8630   -0.7495   -0.0883 N.pl3     1 <0>        -0.7246
     35 H1          1.0039    1.9031    0.0027 H         1 <0>         0.0511
     36 H2         -0.5459    1.8868   -0.8726 H         1 <0>         0.0522
     37 H3         -0.5289    1.8773    0.9072 H         1 <0>         0.0650
     38 H4          0.5293   -0.3651    0.8851 H         1 <0>         0.0769
     39 H5         -1.9862   -0.1019   -0.8214 H         1 <0>         0.0688
     40 H6         -1.4207   -1.6194   -0.0826 H         1 <0>         0.0653
     41 H7         -1.4784   -1.9284    2.3222 H         1 <0>         0.1184
     42 H8         -2.5631   -1.3136    4.4423 H         1 <0>         0.1318
     43 H9         -3.9424    2.3336    2.6565 H         1 <0>         0.1277
     44 H10        -2.8420    1.7044    0.5486 H         1 <0>         0.1224
     45 H11        -4.7089    2.6819    4.2891 H         1 <0>         0.3890
     46 H12        -4.6989    2.1101    7.1527 H         1 <0>         0.0778
     47 H13        -5.9649    4.3455    5.5068 H         1 <0>         0.0548
     48 H14        -5.9989    4.2560    7.2842 H         1 <0>         0.0791
     49 H15        -3.5197    4.2571    7.3317 H         1 <0>         0.0522
     50 H16        -3.4857    4.3466    5.5543 H         1 <0>         0.0501
     51 H17         0.6556   -1.5845   -1.3079 H         1 <0>         0.0631
     52 H18         0.2444   -0.0644   -2.1377 H         1 <0>         0.0653
     53 H19         2.2544    1.0073   -1.0790 H         1 <0>         0.0979
     54 H20         2.3685   -0.0556   -3.3616 H         1 <0>         0.0906
     55 H21         3.9236   -0.1375   -2.4939 H         1 <0>         0.0649
     56 H22         2.6210   -2.3894   -3.4325 H         1 <0>         0.4038
     57 H23         4.3885   -6.5881    0.0471 H         1 <0>         0.4119
     58 H24         4.1523   -6.4352   -1.6092 H         1 <0>         0.4244
     59 H25         3.0756   -0.2685    0.7267 H         1 <0>         0.4046
     60 H26         4.0751   -4.7462    1.4593 H         1 <0>         0.4110
@<TRIPOS>BOND
     1    1    2 1
     2    1   35 1
     3    1   36 1
     4    1   37 1
     5    2    3 1
     6    2   22 1
     7    2   38 1
     8    3    4 1
     9    3   39 1
    10    3   40 1
    11    4    9 ar
    12    4    5 ar
    13    5    6 ar
    14    5   41 1
    15    6    7 ar
    16    6   42 1
    17    7    8 ar
    18    7   10 1
    19    8    9 ar
    20    8   43 1
    21    9   44 1
    22   10   11 2
    23   10   12 am
    24   12   13 1
    25   12   45 1
    26   13   14 1
    27   13   19 1
    28   13   46 1
    29   14   15 1
    30   14   47 1
    31   14   48 1
    32   15   16 1
    33   15   49 1
    34   15   50 1
    35   16   17 2
    36   16   18 1
    37   19   20 2
    38   19   21 1
    39   22   23 1
    40   22   51 1
    41   22   52 1
    42   23   34 1
    43   23   24 1
    44   23   53 1
    45   24   25 1
    46   24   54 1
    47   24   55 1
    48   25   26 1
    49   25   56 1
    50   26   31 1
    51   26   27 2
    52   27   28 1
    53   27   34 1
    54   28   29 am
    55   28   33 2
    56   29   30 1
    57   29   60 1
    58   30   31 2
    59   30   32 1
    60   32   57 1
    61   32   58 1
    62   34   59 1
@<TRIPOS>MOLECULE
CHEMBL23699__14
   60    62     0     0     0
SMALL
USER_CHARGES

@<TRIPOS>ATOM
      1 C1          0.0049    1.5187    0.0319 C.3       1 <0>        -0.1478
      2 C2         -0.1029   -0.0052   -0.0510 C.3       1 <0>        -0.0838
      3 C3         -1.5774   -0.4101   -0.1026 C.3       1 <0>        -0.0726
      4 C4         -2.2476   -0.0329    1.1934 C.ar      1 <0>        -0.0738
      5 C5         -2.2701   -0.9324    2.2444 C.ar      1 <0>        -0.1267
      6 C6         -2.8819   -0.5934    3.4335 C.ar      1 <0>        -0.0629
      7 C7         -3.4791    0.6602    3.5749 C.ar      1 <0>        -0.1115
      8 C8         -3.4529    1.5629    2.5107 C.ar      1 <0>        -0.0841
      9 C9         -2.8328    1.2135    1.3289 C.ar      1 <0>        -0.1237
     10 C10        -4.1370    1.0300    4.8462 C.2       1 <0>         0.5433
     11 O1         -4.1587    0.2417    5.7711 O.2       1 <0>        -0.5528
     12 N1         -4.7128    2.2413    4.9795 N.am      1 <0>        -0.6758
     13 C11        -5.3647    2.6078    6.2392 C.3       1 <0>         0.0736
     14 C12        -5.3741    4.1309    6.3844 C.3       1 <0>        -0.0820
     15 C13        -3.9368    4.6401    6.5093 C.3       1 <0>        -0.1774
     16 C14        -3.9461    6.1403    6.6523 C.2       1 <0>         0.4915
     17 O2         -5.0042    6.7460    6.6541 O.co2     1 <0>        -0.6980
     18 O3         -2.8954    6.7483    6.7662 O.co2     1 <0>        -0.7196
     19 C15        -6.7816    2.0944    6.2395 C.2       1 <0>         0.4986
     20 O4         -7.3183    1.7868    7.2902 O.co2     1 <0>        -0.7011
     21 O5         -7.3912    1.9866    5.1891 O.co2     1 <0>        -0.6991
     22 C16         0.6061   -0.4987   -1.3138 C.3       1 <0>        -0.1189
     23 C17         0.6268   -2.0285   -1.3222 C.3       1 <0>         0.1337
     24 C18         1.2676   -2.5325   -2.6243 C.3       1 <0>         0.1237
     25 N2          2.6699   -2.0918   -2.6464 N.pl3     1 <0>        -0.7319
     26 C19         3.4387   -2.2362   -1.5087 C.2       1 <0>         0.3258
     27 C20         2.8451   -2.4442   -0.2968 C.2       1 <0>        -0.0326
     28 C21         3.6552   -2.5828    0.8483 C.2       1 <0>         0.5364
     29 N3          4.9906   -2.5103    0.7236 N.2       1 <0>        -0.6295
     30 C22         5.5525   -2.3122   -0.4494 C.2       1 <0>         0.6526
     31 N4          4.8064   -2.1726   -1.5788 N.pl3     1 <0>        -0.6354
     32 N5          6.9196   -2.2445   -0.5357 N.pl3     1 <0>        -0.8275
     33 O6          3.1467   -2.7672    1.9456 O.2       1 <0>        -0.5224
     34 N6          1.4387   -2.5217   -0.1980 N.pl3     1 <0>        -0.7204
     35 H1          1.0522    1.8131   -0.0360 H         1 <0>         0.0471
     36 H2         -0.5527    1.9677   -0.7900 H         1 <0>         0.0513
     37 H3         -0.4079    1.8611    0.9808 H         1 <0>         0.0644
     38 H4          0.3658   -0.4509    0.8264 H         1 <0>         0.0789
     39 H5         -2.0672    0.1058   -0.9285 H         1 <0>         0.0696
     40 H6         -1.6534   -1.4873   -0.2509 H         1 <0>         0.0688
     41 H7         -1.8079   -1.9022    2.1336 H         1 <0>         0.1209
     42 H8         -2.8991   -1.2966    4.2531 H         1 <0>         0.1330
     43 H9         -3.9132    2.5345    2.6137 H         1 <0>         0.1282
     44 H10        -2.8080    1.9127    0.5061 H         1 <0>         0.1218
     45 H11        -4.6955    2.8704    4.2414 H         1 <0>         0.3910
     46 H12        -4.8183    2.1667    7.0729 H         1 <0>         0.0778
     47 H13        -5.8425    4.5766    5.5069 H         1 <0>         0.0599
     48 H14        -5.9364    4.4074    7.2763 H         1 <0>         0.0725
     49 H15        -3.4684    4.1944    7.3868 H         1 <0>         0.0529
     50 H16        -3.3745    4.3636    5.6174 H         1 <0>         0.0510
     51 H17         0.0738   -0.1377   -2.1939 H         1 <0>         0.0658
     52 H18         1.6286   -0.1214   -1.3275 H         1 <0>         0.0632
     53 H19        -0.3903   -2.4115   -1.2385 H         1 <0>         0.1001
     54 H20         1.2235   -3.6210   -2.6585 H         1 <0>         0.0669
     55 H21         0.7374   -2.1153   -3.4805 H         1 <0>         0.0923
     56 H22         3.0503   -1.7042   -3.4502 H         1 <0>         0.3977
     57 H23         7.4614   -2.3423    0.2629 H         1 <0>         0.4298
     58 H24         7.3446   -2.0988   -1.3953 H         1 <0>         0.4078
     59 H25         1.0170   -2.8921    0.5931 H         1 <0>         0.4108
     60 H26         5.2422   -2.0284   -2.4334 H         1 <0>         0.4086
@<TRIPOS>BOND
     1    1    2 1
     2    1   35 1
     3    1   36 1
     4    1   37 1
     5    2    3 1
     6    2   22 1
     7    2   38 1
     8    3    4 1
     9    3   39 1
    10    3   40 1
    11    4    9 ar
    12    4    5 ar
    13    5    6 ar
    14    5   41 1
    15    6    7 ar
    16    6   42 1
    17    7    8 ar
    18    7   10 1
    19    8    9 ar
    20    8   43 1
    21    9   44 1
    22   10   11 2
    23   10   12 am
    24   12   13 1
    25   12   45 1
    26   13   14 1
    27   13   19 1
    28   13   46 1
    29   14   15 1
    30   14   47 1
    31   14   48 1
    32   15   16 1
    33   15   49 1
    34   15   50 1
    35   16   17 2
    36   16   18 1
    37   19   20 2
    38   19   21 1
    39   22   23 1
    40   22   51 1
    41   22   52 1
    42   23   34 1
    43   23   24 1
    44   23   53 1
    45   24   25 1
    46   24   54 1
    47   24   55 1
    48   25   26 1
    49   25   56 1
    50   26   31 1
    51   26   27 2
    52   27   28 1
    53   27   34 1
    54   28   29 1
    55   28   33 2
    56   29   30 2
    57   30   31 1
    58   30   32 1
    59   31   60 1
    60   32   57 1
    61   32   58 1
    62   34   59 1
@<TRIPOS>MOLECULE
CHEMBL23699__15
   60    62     0     0     0
SMALL
USER_CHARGES

@<TRIPOS>ATOM
      1 C1          0.0048    1.5187    0.0319 C.3       1 <0>        -0.1479
      2 C2         -0.1030   -0.0052   -0.0511 C.3       1 <0>        -0.0823
      3 C3         -1.5776   -0.4101   -0.1029 C.3       1 <0>        -0.0730
      4 C4         -2.2479   -0.0329    1.1930 C.ar      1 <0>        -0.0736
      5 C5         -2.2706   -0.9324    2.2440 C.ar      1 <0>        -0.1272
      6 C6         -2.8826   -0.5934    3.4330 C.ar      1 <0>        -0.0637
      7 C7         -3.4798    0.6602    3.5743 C.ar      1 <0>        -0.1097
      8 C8         -3.4534    1.5630    2.5101 C.ar      1 <0>        -0.0849
      9 C9         -2.8331    1.2135    1.3284 C.ar      1 <0>        -0.1237
     10 C10        -4.1378    1.0301    4.8455 C.2       1 <0>         0.5503
     11 O1         -4.1596    0.2417    5.7705 O.2       1 <0>        -0.5551
     12 N1         -4.7136    2.2413    4.9788 N.am      1 <0>        -0.6762
     13 C11        -5.3657    2.6078    6.2385 C.3       1 <0>         0.0726
     14 C12        -5.3751    4.1309    6.3836 C.3       1 <0>        -0.0802
     15 C13        -3.9377    4.6401    6.5088 C.3       1 <0>        -0.1780
     16 C14        -3.9470    6.1403    6.6518 C.2       1 <0>         0.4912
     17 O2         -5.0051    6.7460    6.6534 O.co2     1 <0>        -0.6972
     18 O3         -2.8963    6.7483    6.7658 O.co2     1 <0>        -0.7204
     19 C15        -6.7826    2.0945    6.2386 C.2       1 <0>         0.4958
     20 O4         -7.2082    1.4795    5.2757 O.co2     1 <0>        -0.6970
     21 O5         -7.5032    2.2941    7.2015 O.co2     1 <0>        -0.7001
     22 C16         0.6061   -0.4987   -1.3138 C.3       1 <0>        -0.1201
     23 C17         0.6268   -2.0285   -1.3222 C.3       1 <0>         0.1402
     24 C18         1.2645   -2.5317   -2.6255 C.3       1 <0>         0.1174
     25 N2          2.6623   -2.0784   -2.6620 N.pl3     1 <0>        -0.7109
     26 C19         3.4457   -2.2193   -1.5273 C.2       1 <0>         0.3928
     27 C20         2.8451   -2.4371   -0.2953 C.2       1 <0>        -0.0814
     28 C21         3.6512   -2.5736    0.8397 C.2       1 <0>         0.5389
     29 N3          4.9915   -2.4887    0.6930 N.am      1 <0>        -0.6499
     30 C22         5.5324   -2.2767   -0.5378 C.2       1 <0>         0.6231
     31 N4          4.7796   -2.1467   -1.6092 N.2       1 <0>        -0.5913
     32 N5          6.8961   -2.1956   -0.6644 N.pl3     1 <0>        -0.8298
     33 O6          3.1543   -2.7648    1.9393 O.2       1 <0>        -0.5454
     34 N6          1.4388   -2.5211   -0.1978 N.pl3     1 <0>        -0.7241
     35 H1          1.0521    1.8131   -0.0359 H         1 <0>         0.0470
     36 H2         -0.5527    1.9677   -0.7902 H         1 <0>         0.0516
     37 H3         -0.4081    1.8611    0.9807 H         1 <0>         0.0633
     38 H4          0.3655   -0.4509    0.8264 H         1 <0>         0.0772
     39 H5         -2.0672    0.1059   -0.9289 H         1 <0>         0.0697
     40 H6         -1.6536   -1.4872   -0.2513 H         1 <0>         0.0690
     41 H7         -1.8084   -1.9022    2.1332 H         1 <0>         0.1201
     42 H8         -2.8998   -1.2966    4.2526 H         1 <0>         0.1321
     43 H9         -3.9137    2.5345    2.6131 H         1 <0>         0.1271
     44 H10        -2.8082    1.9128    0.5057 H         1 <0>         0.1217
     45 H11        -4.6962    2.8705    4.2407 H         1 <0>         0.3889
     46 H12        -4.8194    2.1667    7.0722 H         1 <0>         0.0777
     47 H13        -5.8433    4.5766    5.5060 H         1 <0>         0.0548
     48 H14        -5.9375    4.4074    7.2754 H         1 <0>         0.0791
     49 H15        -3.4695    4.1944    7.3864 H         1 <0>         0.0522
     50 H16        -3.3753    4.3636    5.6170 H         1 <0>         0.0500
     51 H17         0.0739   -0.1377   -2.1939 H         1 <0>         0.0655
     52 H18         1.6286   -0.1214   -1.3273 H         1 <0>         0.0641
     53 H19        -0.3903   -2.4111   -1.2374 H         1 <0>         0.0980
     54 H20         1.2308   -3.6208   -2.6542 H         1 <0>         0.0652
     55 H21         0.7239   -2.1244   -3.4799 H         1 <0>         0.0907
     56 H22         3.0313   -1.6864   -3.4689 H         1 <0>         0.4037
     57 H23         7.4622   -2.2890    0.1178 H         1 <0>         0.4119
     58 H24         7.2942   -2.0447   -1.5360 H         1 <0>         0.4244
     59 H25         1.0176   -2.8945    0.5921 H         1 <0>         0.4047
     60 H26         5.5697   -2.5795    1.4665 H         1 <0>         0.4109
@<TRIPOS>BOND
     1    1    2 1
     2    1   35 1
     3    1   36 1
     4    1   37 1
     5    2    3 1
     6    2   22 1
     7    2   38 1
     8    3    4 1
     9    3   39 1
    10    3   40 1
    11    4    9 ar
    12    4    5 ar
    13    5    6 ar
    14    5   41 1
    15    6    7 ar
    16    6   42 1
    17    7    8 ar
    18    7   10 1
    19    8    9 ar
    20    8   43 1
    21    9   44 1
    22   10   11 2
    23   10   12 am
    24   12   13 1
    25   12   45 1
    26   13   14 1
    27   13   19 1
    28   13   46 1
    29   14   15 1
    30   14   47 1
    31   14   48 1
    32   15   16 1
    33   15   49 1
    34   15   50 1
    35   16   17 2
    36   16   18 1
    37   19   20 2
    38   19   21 1
    39   22   23 1
    40   22   51 1
    41   22   52 1
    42   23   34 1
    43   23   24 1
    44   23   53 1
    45   24   25 1
    46   24   54 1
    47   24   55 1
    48   25   26 1
    49   25   56 1
    50   26   31 1
    51   26   27 2
    52   27   28 1
    53   27   34 1
    54   28   29 am
    55   28   33 2
    56   29   30 1
    57   29   60 1
    58   30   31 2
    59   30   32 1
    60   32   57 1
    61   32   58 1
    62   34   59 1
@<TRIPOS>MOLECULE
CHEMBL424683
   61    63     0     0     0
SMALL
USER_CHARGES

@<TRIPOS>ATOM
      1 C1         -0.0167    1.3794    0.0096 C.ar      1 <0>        -0.1085
      2 C2          1.1667    2.0884    0.0021 C.ar      1 <0>        -0.0633
      3 C3          2.3848    1.4070   -0.0132 C.ar      1 <0>        -0.0986
      4 C4          2.3966    0.0113   -0.0208 C.ar      1 <0>        -0.0804
      5 C5          1.2061   -0.6856   -0.0132 C.ar      1 <0>        -0.1152
      6 C6          0.0021   -0.0041    0.0020 C.ar      1 <0>        -0.0870
      7 C7         -1.2946   -0.7719    0.0103 C.3       1 <0>        -0.0779
      8 C8         -1.3540   -1.6591    1.2554 C.3       1 <0>        -0.1082
      9 C9         -2.7204   -2.3435    1.3293 C.3       1 <0>        -0.1192
     10 C10        -2.7798   -3.2307    2.5744 C.3       1 <0>        -0.0243
     11 C11        -4.1256   -3.9048    2.6471 C.2       1 <0>        -0.4012
     12 C12        -4.3033   -5.1854    2.1432 C.2       1 <0>         0.4900
     13 N1         -5.5061   -5.7670    2.2177 N.2       1 <0>        -0.6246
     14 C13        -6.5306   -5.1456    2.7625 C.2       1 <0>         0.6633
     15 N2         -6.4081   -3.8890    3.2706 N.am      1 <0>        -0.6620
     16 C14        -5.2181   -3.2541    3.2290 C.2       1 <0>         0.5563
     17 O1         -5.0985   -2.1287    3.6872 O.2       1 <0>        -0.5464
     18 N3         -7.7447   -5.7763    2.8190 N.pl3     1 <0>        -0.8225
     19 N4         -3.2436   -5.8564    1.5669 N.pl3     1 <0>        -0.8261
     20 C15        -1.3766   -1.6326   -1.2241 C.2       1 <0>         0.3414
     21 O2         -1.0263   -2.7873   -1.1794 O.2       1 <0>        -0.3702
     22 C16        -1.8959   -1.0521   -2.5142 C.3       1 <0>         0.4176
     23 F1         -3.0279   -1.7648   -2.9240 F         1 <0>        -0.1705
     24 F2         -2.2361    0.2907   -2.3178 F         1 <0>        -0.1640
     25 F3         -0.9059   -1.1432   -3.4984 F         1 <0>        -0.1608
     26 C17         3.6569    2.1603   -0.0218 C.2       1 <0>         0.5443
     27 O3          3.6435    3.3757   -0.0155 O.2       1 <0>        -0.5470
     28 N5          4.8314    1.4994   -0.0366 N.am      1 <0>        -0.6777
     29 C18         6.0919    2.2459   -0.0451 C.3       1 <0>         0.0787
     30 C19         7.1909    1.3839   -0.6698 C.3       1 <0>        -0.0971
     31 C20         6.8626    1.1271   -2.1419 C.3       1 <0>         0.0014
     32 C21         7.9450    0.2781   -2.7573 C.2       1 <0>         0.0651
     33 N6          7.9783   -1.0456   -2.8075 N.2       1 <0>        -0.3913
     34 N7          9.0645   -1.3855   -3.4132 N.2       1 <0>        -0.2095
     35 N8          9.7111   -0.3220   -3.7432 N.2       1 <0>        -0.2092
     36 N9          9.0440    0.7117   -3.3574 N.2       1 <0>        -0.3895
     37 C22         6.4748    2.6012    1.3685 C.2       1 <0>         0.4968
     38 O4          6.1458    1.8742    2.2903 O.co2     1 <0>        -0.6954
     39 O5          7.1137    3.6157    1.5903 O.co2     1 <0>        -0.6973
     40 H1         -0.9598    1.9054    0.0260 H         1 <0>         0.1302
     41 H2          1.1508    3.1682    0.0077 H         1 <0>         0.1397
     42 H3          3.3358   -0.5219   -0.0330 H         1 <0>         0.1350
     43 H4          1.2138   -1.7656   -0.0191 H         1 <0>         0.1281
     44 H5         -2.1308   -0.0728    0.0221 H         1 <0>         0.1195
     45 H6         -0.5712   -2.4156    1.2002 H         1 <0>         0.0808
     46 H7         -1.2057   -1.0470    2.1451 H         1 <0>         0.0893
     47 H8         -3.5032   -1.5870    1.3845 H         1 <0>         0.0671
     48 H9         -2.8687   -2.9556    0.4396 H         1 <0>         0.0542
     49 H10        -1.9970   -3.9872    2.5192 H         1 <0>         0.0584
     50 H11        -2.6315   -2.6186    3.4640 H         1 <0>         0.0748
     51 H12        -7.8432   -6.6718    2.4595 H         1 <0>         0.4274
     52 H13        -8.5063   -5.3275    3.2183 H         1 <0>         0.4147
     53 H14        -2.3726   -5.4328    1.5136 H         1 <0>         0.4178
     54 H15        -3.3700   -6.7515    1.2152 H         1 <0>         0.4047
     55 H16         4.8421    0.5294   -0.0416 H         1 <0>         0.3936
     56 H17         5.9699    3.1583   -0.6287 H         1 <0>         0.0839
     57 H18         8.1462    1.9034   -0.5958 H         1 <0>         0.0752
     58 H19         7.2523    0.4333   -0.1400 H         1 <0>         0.0625
     59 H20         5.9072    0.6076   -2.2159 H         1 <0>         0.0610
     60 H21         6.8012    2.0777   -2.6717 H         1 <0>         0.0635
     61 H22        -7.1770   -3.4503    3.6672 H         1 <0>         0.4086
@<TRIPOS>BOND
     1    1    6 ar
     2    1    2 ar
     3    1   40 1
     4    2    3 ar
     5    2   41 1
     6    3    4 ar
     7    3   26 1
     8    4    5 ar
     9    4   42 1
    10    5    6 ar
    11    5   43 1
    12    6    7 1
    13    7    8 1
    14    7   20 1
    15    7   44 1
    16    8    9 1
    17    8   45 1
    18    8   46 1
    19    9   10 1
    20    9   47 1
    21    9   48 1
    22   10   11 1
    23   10   49 1
    24   10   50 1
    25   11   16 1
    26   11   12 2
    27   12   13 1
    28   12   19 1
    29   13   14 2
    30   14   15 1
    31   14   18 1
    32   15   16 am
    33   15   61 1
    34   16   17 2
    35   18   51 1
    36   18   52 1
    37   19   53 1
    38   19   54 1
    39   20   21 2
    40   20   22 1
    41   22   23 1
    42   22   24 1
    43   22   25 1
    44   26   27 2
    45   26   28 am
    46   28   29 1
    47   28   55 1
    48   29   30 1
    49   29   37 1
    50   29   56 1
    51   30   31 1
    52   30   57 1
    53   30   58 1
    54   31   59 1
    55   31   60 1
    56   31   32 1
    57   32   33 2
    58   32   36 1
    59   33   34 1
    60   34   35 2
    61   35   36 1
    62   37   38 2
    63   37   39 1
@<TRIPOS>MOLECULE
CHEMBL424683__1
   61    63     0     0     0
SMALL
USER_CHARGES

@<TRIPOS>ATOM
      1 C1         -0.0167    1.3794    0.0096 C.ar      1 <0>        -0.1083
      2 C2          1.1667    2.0884    0.0021 C.ar      1 <0>        -0.0636
      3 C3          2.3848    1.4070   -0.0132 C.ar      1 <0>        -0.0961
      4 C4          2.3966    0.0113   -0.0208 C.ar      1 <0>        -0.0813
      5 C5          1.2061   -0.6856   -0.0132 C.ar      1 <0>        -0.1153
      6 C6          0.0021   -0.0041    0.0020 C.ar      1 <0>        -0.0881
      7 C7         -1.2946   -0.7719    0.0103 C.3       1 <0>        -0.0778
      8 C8         -1.3540   -1.6591    1.2554 C.3       1 <0>        -0.1080
      9 C9         -2.7204   -2.3435    1.3293 C.3       1 <0>        -0.1192
     10 C10        -2.7798   -3.2307    2.5744 C.3       1 <0>        -0.0244
     11 C11        -4.1256   -3.9048    2.6471 C.2       1 <0>        -0.4011
     12 C12        -4.3033   -5.1854    2.1432 C.2       1 <0>         0.4900
     13 N1         -5.5061   -5.7670    2.2177 N.2       1 <0>        -0.6247
     14 C13        -6.5306   -5.1456    2.7625 C.2       1 <0>         0.6633
     15 N2         -6.4081   -3.8890    3.2706 N.am      1 <0>        -0.6620
     16 C14        -5.2181   -3.2541    3.2290 C.2       1 <0>         0.5564
     17 O1         -5.0985   -2.1287    3.6872 O.2       1 <0>        -0.5465
     18 N3         -7.7447   -5.7763    2.8190 N.pl3     1 <0>        -0.8225
     19 N4         -3.2436   -5.8564    1.5669 N.pl3     1 <0>        -0.8260
     20 C15        -1.3766   -1.6326   -1.2241 C.2       1 <0>         0.3418
     21 O2         -1.0263   -2.7873   -1.1794 O.2       1 <0>        -0.3712
     22 C16        -1.8959   -1.0521   -2.5142 C.3       1 <0>         0.4175
     23 F1         -3.0279   -1.7648   -2.9240 F         1 <0>        -0.1708
     24 F2         -2.2361    0.2907   -2.3178 F         1 <0>        -0.1637
     25 F3         -0.9059   -1.1432   -3.4984 F         1 <0>        -0.1607
     26 C17         3.6569    2.1603   -0.0218 C.2       1 <0>         0.5511
     27 O3          3.6435    3.3757   -0.0155 O.2       1 <0>        -0.5484
     28 N5          4.8314    1.4994   -0.0366 N.am      1 <0>        -0.6782
     29 C18         6.0919    2.2459   -0.0451 C.3       1 <0>         0.0777
     30 C19         7.2027    1.3778    0.5494 C.3       1 <0>        -0.0952
     31 C20         6.9032    1.1060    2.0250 C.3       1 <0>         0.0008
     32 C21         7.9973    0.2510    2.6105 C.2       1 <0>         0.0657
     33 N6          9.1105    0.6786    3.1883 N.2       1 <0>        -0.3891
     34 N7          9.7823   -0.3589    3.5554 N.2       1 <0>        -0.2092
     35 N8          9.1291   -1.4190    3.2279 N.2       1 <0>        -0.2100
     36 N9          8.0287   -1.0731    2.6518 N.2       1 <0>        -0.3923
     37 C22         6.4472    2.6155   -1.4622 C.2       1 <0>         0.4945
     38 O4          5.7154    2.2860   -2.3799 O.co2     1 <0>        -0.6926
     39 O5          7.4666    3.2441   -1.6909 O.co2     1 <0>        -0.6980
     40 H1         -0.9598    1.9054    0.0260 H         1 <0>         0.1298
     41 H2          1.1508    3.1682    0.0077 H         1 <0>         0.1395
     42 H3          3.3358   -0.5219   -0.0330 H         1 <0>         0.1341
     43 H4          1.2138   -1.7656   -0.0191 H         1 <0>         0.1275
     44 H5         -2.1308   -0.0728    0.0221 H         1 <0>         0.1193
     45 H6         -0.5712   -2.4156    1.2002 H         1 <0>         0.0809
     46 H7         -1.2057   -1.0470    2.1451 H         1 <0>         0.0891
     47 H8         -3.5032   -1.5870    1.3845 H         1 <0>         0.0670
     48 H9         -2.8687   -2.9556    0.4396 H         1 <0>         0.0541
     49 H10        -1.9970   -3.9872    2.5192 H         1 <0>         0.0586
     50 H11        -2.6315   -2.6186    3.4640 H         1 <0>         0.0748
     51 H12        -7.8432   -6.6718    2.4595 H         1 <0>         0.4274
     52 H13        -8.5063   -5.3275    3.2183 H         1 <0>         0.4147
     53 H14        -2.3726   -5.4328    1.5136 H         1 <0>         0.4179
     54 H15        -3.3700   -6.7515    1.2152 H         1 <0>         0.4046
     55 H16         4.8421    0.5294   -0.0416 H         1 <0>         0.3913
     56 H17         5.9814    3.1523    0.5501 H         1 <0>         0.0841
     57 H18         7.2537    0.4325    0.0090 H         1 <0>         0.0572
     58 H19         8.1565    1.8981    0.4621 H         1 <0>         0.0817
     59 H20         6.8522    2.0513    2.5654 H         1 <0>         0.0630
     60 H21         5.9494    0.5857    2.1123 H         1 <0>         0.0603
     61 H22        -7.1770   -3.4503    3.6672 H         1 <0>         0.4086
@<TRIPOS>BOND
     1    1    6 ar
     2    1    2 ar
     3    1   40 1
     4    2    3 ar
     5    2   41 1
     6    3    4 ar
     7    3   26 1
     8    4    5 ar
     9    4   42 1
    10    5    6 ar
    11    5   43 1
    12    6    7 1
    13    7    8 1
    14    7   20 1
    15    7   44 1
    16    8    9 1
    17    8   45 1
    18    8   46 1
    19    9   10 1
    20    9   47 1
    21    9   48 1
    22   10   11 1
    23   10   49 1
    24   10   50 1
    25   11   16 1
    26   11   12 2
    27   12   13 1
    28   12   19 1
    29   13   14 2
    30   14   15 1
    31   14   18 1
    32   15   16 am
    33   15   61 1
    34   16   17 2
    35   18   51 1
    36   18   52 1
    37   19   53 1
    38   19   54 1
    39   20   21 2
    40   20   22 1
    41   22   23 1
    42   22   24 1
    43   22   25 1
    44   26   27 2
    45   26   28 am
    46   28   29 1
    47   28   55 1
    48   29   30 1
    49   29   37 1
    50   29   56 1
    51   30   31 1
    52   30   57 1
    53   30   58 1
    54   31   59 1
    55   31   60 1
    56   31   32 1
    57   32   33 2
    58   32   36 1
    59   33   34 1
    60   34   35 2
    61   35   36 1
    62   37   38 2
    63   37   39 1
@<TRIPOS>MOLECULE
CHEMBL424683__2
   61    63     0     0     0
SMALL
USER_CHARGES

@<TRIPOS>ATOM
      1 C1         -0.0167    1.3794    0.0096 C.ar      1 <0>        -0.1156
      2 C2          1.1667    2.0884    0.0021 C.ar      1 <0>        -0.0678
      3 C3          2.3848    1.4070   -0.0132 C.ar      1 <0>        -0.0998
      4 C4          2.3966    0.0113   -0.0208 C.ar      1 <0>        -0.0839
      5 C5          1.2061   -0.6856   -0.0132 C.ar      1 <0>        -0.0951
      6 C6          0.0021   -0.0041    0.0020 C.ar      1 <0>        -0.0878
      7 C7         -1.2946   -0.7719    0.0103 C.3       1 <0>        -0.0759
      8 C8         -1.3779   -1.6457   -1.2429 C.3       1 <0>        -0.1085
      9 C9         -2.7455   -2.3294   -1.2979 C.3       1 <0>        -0.1264
     10 C10        -2.8288   -3.2031   -2.5512 C.3       1 <0>        -0.0260
     11 C11        -4.1759   -3.8766   -2.6054 C.2       1 <0>        -0.3983
     12 C12        -5.2152   -3.3211   -3.3378 C.2       1 <0>         0.4890
     13 N1         -6.4039   -3.9347   -3.3738 N.2       1 <0>        -0.6254
     14 C13        -6.6087   -5.0613   -2.7247 C.2       1 <0>         0.6638
     15 N2         -5.6222   -5.6460   -1.9920 N.am      1 <0>        -0.6618
     16 C14        -4.4008   -5.0764   -1.9232 C.2       1 <0>         0.5547
     17 O1         -3.5087   -5.5972   -1.2723 O.2       1 <0>        -0.5414
     18 N3         -7.8401   -5.6570   -2.7876 N.pl3     1 <0>        -0.8226
     19 N4         -5.0240   -2.1400   -4.0262 N.pl3     1 <0>        -0.8281
     20 C15        -1.3531   -1.6458    1.2367 C.2       1 <0>         0.3308
     21 O2         -0.3317   -2.0061    1.7707 O.2       1 <0>        -0.3568
     22 C16        -2.6863   -2.0699    1.7968 C.3       1 <0>         0.4177
     23 F1         -2.8095   -1.6050    3.1105 F         1 <0>        -0.1677
     24 F2         -3.7134   -1.5324    1.0136 F         1 <0>        -0.1664
     25 F3         -2.7737   -3.4662    1.7861 F         1 <0>        -0.1604
     26 C17         3.6569    2.1603   -0.0218 C.2       1 <0>         0.5447
     27 O3          3.6435    3.3757   -0.0155 O.2       1 <0>        -0.5490
     28 N5          4.8314    1.4994   -0.0366 N.am      1 <0>        -0.6778
     29 C18         6.0919    2.2459   -0.0451 C.3       1 <0>         0.0789
     30 C19         7.1909    1.3839   -0.6698 C.3       1 <0>        -0.0974
     31 C20         6.8626    1.1271   -2.1419 C.3       1 <0>         0.0018
     32 C21         7.9450    0.2781   -2.7573 C.2       1 <0>         0.0650
     33 N6          7.9783   -1.0456   -2.8075 N.2       1 <0>        -0.3909
     34 N7          9.0645   -1.3855   -3.4132 N.2       1 <0>        -0.2095
     35 N8          9.7111   -0.3220   -3.7432 N.2       1 <0>        -0.2094
     36 N9          9.0440    0.7117   -3.3574 N.2       1 <0>        -0.3898
     37 C22         6.4748    2.6012    1.3685 C.2       1 <0>         0.4964
     38 O4          6.1458    1.8742    2.2903 O.co2     1 <0>        -0.6950
     39 O5          7.1137    3.6157    1.5903 O.co2     1 <0>        -0.6979
     40 H1         -0.9598    1.9054    0.0260 H         1 <0>         0.1262
     41 H2          1.1508    3.1682    0.0077 H         1 <0>         0.1374
     42 H3          3.3358   -0.5219   -0.0330 H         1 <0>         0.1336
     43 H4          1.2138   -1.7656   -0.0191 H         1 <0>         0.1279
     44 H5         -2.1308   -0.0728    0.0221 H         1 <0>         0.1188
     45 H6         -1.2465   -1.0241   -2.1286 H         1 <0>         0.0923
     46 H7         -0.5943   -2.4027   -1.2108 H         1 <0>         0.0791
     47 H8         -2.8769   -2.9510   -0.4123 H         1 <0>         0.0600
     48 H9         -3.5291   -1.5724   -1.3300 H         1 <0>         0.0687
     49 H10        -2.6975   -2.5815   -3.4369 H         1 <0>         0.0600
     50 H11        -2.0452   -3.9601   -2.5191 H         1 <0>         0.0741
     51 H12        -8.5506   -5.2486   -3.3067 H         1 <0>         0.4272
     52 H13        -8.0020   -6.4874   -2.3131 H         1 <0>         0.4149
     53 H14        -4.1617   -1.6967   -3.9985 H         1 <0>         0.4165
     54 H15        -5.7519   -1.7534   -4.5376 H         1 <0>         0.4042
     55 H16         4.8421    0.5294   -0.0416 H         1 <0>         0.3939
     56 H17         5.9699    3.1583   -0.6287 H         1 <0>         0.0837
     57 H18         8.1462    1.9034   -0.5958 H         1 <0>         0.0750
     58 H19         7.2523    0.4333   -0.1400 H         1 <0>         0.0626
     59 H20         5.9072    0.6076   -2.2159 H         1 <0>         0.0612
     60 H21         6.8012    2.0777   -2.6717 H         1 <0>         0.0633
     61 H22        -5.7961   -6.4763   -1.5216 H         1 <0>         0.4089
@<TRIPOS>BOND
     1    1    6 ar
     2    1    2 ar
     3    1   40 1
     4    2    3 ar
     5    2   41 1
     6    3    4 ar
     7    3   26 1
     8    4    5 ar
     9    4   42 1
    10    5    6 ar
    11    5   43 1
    12    6    7 1
    13    7    8 1
    14    7   20 1
    15    7   44 1
    16    8    9 1
    17    8   45 1
    18    8   46 1
    19    9   10 1
    20    9   47 1
    21    9   48 1
    22   10   11 1
    23   10   49 1
    24   10   50 1
    25   11   16 1
    26   11   12 2
    27   12   13 1
    28   12   19 1
    29   13   14 2
    30   14   15 1
    31   14   18 1
    32   15   16 am
    33   15   61 1
    34   16   17 2
    35   18   51 1
    36   18   52 1
    37   19   53 1
    38   19   54 1
    39   20   21 2
    40   20   22 1
    41   22   23 1
    42   22   24 1
    43   22   25 1
    44   26   27 2
    45   26   28 am
    46   28   29 1
    47   28   55 1
    48   29   30 1
    49   29   37 1
    50   29   56 1
    51   30   31 1
    52   30   57 1
    53   30   58 1
    54   31   59 1
    55   31   60 1
    56   31   32 1
    57   32   33 2
    58   32   36 1
    59   33   34 1
    60   34   35 2
    61   35   36 1
    62   37   38 2
    63   37   39 1
@<TRIPOS>MOLECULE
CHEMBL424683__3
   61    63     0     0     0
SMALL
USER_CHARGES

@<TRIPOS>ATOM
      1 C1         -0.0167    1.3794    0.0096 C.ar      1 <0>        -0.1155
      2 C2          1.1667    2.0884    0.0021 C.ar      1 <0>        -0.0681
      3 C3          2.3848    1.4070   -0.0132 C.ar      1 <0>        -0.0974
      4 C4          2.3966    0.0113   -0.0208 C.ar      1 <0>        -0.0849
      5 C5          1.2061   -0.6856   -0.0132 C.ar      1 <0>        -0.0953
      6 C6          0.0021   -0.0041    0.0020 C.ar      1 <0>        -0.0888
      7 C7         -1.2946   -0.7719    0.0103 C.3       1 <0>        -0.0756
      8 C8         -1.3779   -1.6457   -1.2429 C.3       1 <0>        -0.1086
      9 C9         -2.7455   -2.3294   -1.2979 C.3       1 <0>        -0.1264
     10 C10        -2.8288   -3.2031   -2.5512 C.3       1 <0>        -0.0259
     11 C11        -4.1759   -3.8766   -2.6054 C.2       1 <0>        -0.3985
     12 C12        -5.2152   -3.3211   -3.3378 C.2       1 <0>         0.4891
     13 N1         -6.4039   -3.9347   -3.3738 N.2       1 <0>        -0.6253
     14 C13        -6.6087   -5.0613   -2.7247 C.2       1 <0>         0.6638
     15 N2         -5.6222   -5.6460   -1.9920 N.am      1 <0>        -0.6618
     16 C14        -4.4008   -5.0764   -1.9232 C.2       1 <0>         0.5546
     17 O1         -3.5087   -5.5972   -1.2723 O.2       1 <0>        -0.5414
     18 N3         -7.8401   -5.6570   -2.7876 N.pl3     1 <0>        -0.8226
     19 N4         -5.0240   -2.1400   -4.0262 N.pl3     1 <0>        -0.8280
     20 C15        -1.3531   -1.6458    1.2367 C.2       1 <0>         0.3309
     21 O2         -0.3317   -2.0061    1.7707 O.2       1 <0>        -0.3568
     22 C16        -2.6863   -2.0699    1.7968 C.3       1 <0>         0.4175
     23 F1         -2.8095   -1.6050    3.1105 F         1 <0>        -0.1679
     24 F2         -3.7134   -1.5324    1.0136 F         1 <0>        -0.1665
     25 F3         -2.7737   -3.4662    1.7861 F         1 <0>        -0.1604
     26 C17         3.6569    2.1603   -0.0218 C.2       1 <0>         0.5516
     27 O3          3.6435    3.3757   -0.0155 O.2       1 <0>        -0.5505
     28 N5          4.8314    1.4994   -0.0366 N.am      1 <0>        -0.6783
     29 C18         6.0919    2.2459   -0.0451 C.3       1 <0>         0.0778
     30 C19         7.2027    1.3778    0.5494 C.3       1 <0>        -0.0951
     31 C20         6.9032    1.1060    2.0250 C.3       1 <0>         0.0005
     32 C21         7.9973    0.2510    2.6105 C.2       1 <0>         0.0657
     33 N6          9.1105    0.6786    3.1883 N.2       1 <0>        -0.3893
     34 N7          9.7823   -0.3589    3.5554 N.2       1 <0>        -0.2095
     35 N8          9.1291   -1.4190    3.2279 N.2       1 <0>        -0.2098
     36 N9          8.0287   -1.0731    2.6518 N.2       1 <0>        -0.3918
     37 C22         6.4472    2.6155   -1.4622 C.2       1 <0>         0.4950
     38 O4          5.7154    2.2860   -2.3799 O.co2     1 <0>        -0.6929
     39 O5          7.4666    3.2441   -1.6909 O.co2     1 <0>        -0.6982
     40 H1         -0.9598    1.9054    0.0260 H         1 <0>         0.1259
     41 H2          1.1508    3.1682    0.0077 H         1 <0>         0.1371
     42 H3          3.3358   -0.5219   -0.0330 H         1 <0>         0.1326
     43 H4          1.2138   -1.7656   -0.0191 H         1 <0>         0.1274
     44 H5         -2.1308   -0.0728    0.0221 H         1 <0>         0.1187
     45 H6         -1.2465   -1.0241   -2.1286 H         1 <0>         0.0925
     46 H7         -0.5943   -2.4027   -1.2108 H         1 <0>         0.0788
     47 H8         -2.8769   -2.9510   -0.4123 H         1 <0>         0.0600
     48 H9         -3.5291   -1.5724   -1.3300 H         1 <0>         0.0688
     49 H10        -2.6975   -2.5815   -3.4369 H         1 <0>         0.0600
     50 H11        -2.0452   -3.9601   -2.5191 H         1 <0>         0.0739
     51 H12        -8.5506   -5.2486   -3.3067 H         1 <0>         0.4272
     52 H13        -8.0020   -6.4874   -2.3131 H         1 <0>         0.4149
     53 H14        -4.1617   -1.6967   -3.9985 H         1 <0>         0.4166
     54 H15        -5.7519   -1.7534   -4.5376 H         1 <0>         0.4042
     55 H16         4.8421    0.5294   -0.0416 H         1 <0>         0.3917
     56 H17         5.9814    3.1523    0.5501 H         1 <0>         0.0836
     57 H18         7.2537    0.4325    0.0090 H         1 <0>         0.0574
     58 H19         8.1565    1.8981    0.4621 H         1 <0>         0.0816
     59 H20         6.8522    2.0513    2.5654 H         1 <0>         0.0628
     60 H21         5.9494    0.5857    2.1123 H         1 <0>         0.0604
     61 H22        -5.7961   -6.4763   -1.5216 H         1 <0>         0.4089
@<TRIPOS>BOND
     1    1    6 ar
     2    1    2 ar
     3    1   40 1
     4    2    3 ar
     5    2   41 1
     6    3    4 ar
     7    3   26 1
     8    4    5 ar
     9    4   42 1
    10    5    6 ar
    11    5   43 1
    12    6    7 1
    13    7    8 1
    14    7   20 1
    15    7   44 1
    16    8    9 1
    17    8   45 1
    18    8   46 1
    19    9   10 1
    20    9   47 1
    21    9   48 1
    22   10   11 1
    23   10   49 1
    24   10   50 1
    25   11   16 1
    26   11   12 2
    27   12   13 1
    28   12   19 1
    29   13   14 2
    30   14   15 1
    31   14   18 1
    32   15   16 am
    33   15   61 1
    34   16   17 2
    35   18   51 1
    36   18   52 1
    37   19   53 1
    38   19   54 1
    39   20   21 2
    40   20   22 1
    41   22   23 1
    42   22   24 1
    43   22   25 1
    44   26   27 2
    45   26   28 am
    46   28   29 1
    47   28   55 1
    48   29   30 1
    49   29   37 1
    50   29   56 1
    51   30   31 1
    52   30   57 1
    53   30   58 1
    54   31   59 1
    55   31   60 1
    56   31   32 1
    57   32   33 2
    58   32   36 1
    59   33   34 1
    60   34   35 2
    61   35   36 1
    62   37   38 2
    63   37   39 1
@<TRIPOS>MOLECULE
CHEMBL23388
   56    58     0     0     0
SMALL
USER_CHARGES

@<TRIPOS>ATOM
      1 C1         -0.0169    1.3937    0.0097 C.ar      1 <0>        -0.0185
      2 C2          1.1662    2.0965    0.0022 C.ar      1 <0>        -0.2078
      3 C3          2.3811    1.4169   -0.0131 C.ar      1 <0>         0.2223
      4 C4          2.4034    0.0249   -0.0208 C.ar      1 <0>        -0.2009
      5 C5          1.2237   -0.6836   -0.0138 C.ar      1 <0>        -0.0358
      6 C6          0.0021   -0.0041    0.0020 C.ar      1 <0>        -0.1649
      7 C7         -1.2644   -0.7605    0.0105 C.2       1 <0>         0.5548
      8 O1         -2.3263   -0.1682    0.0243 O.2       1 <0>        -0.5637
      9 N1         -1.2445   -2.1081    0.0031 N.am      1 <0>        -0.6784
     10 C8         -2.5022   -2.8593    0.0116 C.3       1 <0>         0.0736
     11 C9         -2.2637   -4.2464    0.6114 C.3       1 <0>        -0.0808
     12 C10        -1.8670   -4.1047    2.0823 C.3       1 <0>        -0.1776
     13 C11        -1.6321   -5.4710    2.6731 C.2       1 <0>         0.4912
     14 O2         -1.7693   -6.4659    1.9818 O.co2     1 <0>        -0.6983
     15 O3         -1.3049   -5.5815    3.8424 O.co2     1 <0>        -0.7197
     16 C12        -3.0110   -3.0030   -1.3996 C.2       1 <0>         0.4973
     17 O4         -2.3006   -2.6873   -2.3389 O.co2     1 <0>        -0.6983
     18 O5         -4.1331   -3.4348   -1.6021 O.co2     1 <0>        -0.7030
     19 N2          3.5749    2.1299   -0.0211 N.pl3     1 <0>        -0.7471
     20 C13         4.8542    1.4162   -0.0371 C.3       1 <0>         0.1267
     21 C14         6.0023    2.4276   -0.0432 C.3       1 <0>        -0.1367
     22 C15         7.3384    1.6823   -0.0600 C.3       1 <0>         0.1408
     23 H1          7.3656    0.9931   -0.9040 H         1 <0>         0.1017
     24 C16         8.4935    2.6887   -0.1734 C.3       1 <0>         0.1257
     25 N3          8.4931    3.5261    1.0349 N.pl3     1 <0>        -0.7330
     26 C17         8.3440    2.9261    2.2694 C.2       1 <0>         0.3285
     27 C18         7.8570    1.6540    2.3640 C.2       1 <0>        -0.0349
     28 C19         7.7107    1.0690    3.6380 C.2       1 <0>         0.5364
     29 N4          8.0550    1.7721    4.7295 N.2       1 <0>        -0.6277
     30 C20         8.5259    2.9963    4.6271 C.2       1 <0>         0.6534
     31 N5          8.6817    3.5974    3.4162 N.pl3     1 <0>        -0.6362
     32 N6          8.8667    3.6815    5.7651 N.pl3     1 <0>        -0.8267
     33 O6          7.2740   -0.0683    3.7486 O.2       1 <0>        -0.5192
     34 N7          7.5084    0.9365    1.1975 N.pl3     1 <0>        -0.7234
     35 H2         -0.9590    1.9215    0.0260 H         1 <0>         0.1320
     36 H3          1.1522    3.1764    0.0078 H         1 <0>         0.1176
     37 H4          3.3474   -0.4995   -0.0326 H         1 <0>         0.1215
     38 H5          1.2416   -1.7634   -0.0204 H         1 <0>         0.1279
     39 H6         -0.3974   -2.5806   -0.0078 H         1 <0>         0.3890
     40 H7         -3.2399   -2.3261    0.6112 H         1 <0>         0.0771
     41 H8         -3.1771   -4.8365    0.5367 H         1 <0>         0.0759
     42 H9         -1.4631   -4.7456    0.0656 H         1 <0>         0.0559
     43 H10        -0.9536   -3.5146    2.1570 H         1 <0>         0.0513
     44 H11        -2.6677   -3.6056    2.6281 H         1 <0>         0.0522
     45 H12         3.5606    3.0997   -0.0161 H         1 <0>         0.3935
     46 H13         4.9299    0.7860    0.8490 H         1 <0>         0.0656
     47 H14         4.9126    0.7950   -0.9309 H         1 <0>         0.0578
     48 H15         5.9267    3.0578   -0.9294 H         1 <0>         0.0718
     49 H16         5.9440    3.0488    0.8505 H         1 <0>         0.0692
     50 H17         9.4405    2.1544   -0.2503 H         1 <0>         0.0699
     51 H18         8.3510    3.3144   -1.0545 H         1 <0>         0.0936
     52 H19         8.5961    4.4881    0.9657 H         1 <0>         0.3985
     53 H20         8.7596    3.2630    6.6336 H         1 <0>         0.4304
     54 H21         9.2149    4.5846    5.7015 H         1 <0>         0.4080
     55 H22         7.3846   -0.0252    1.2241 H         1 <0>         0.4126
     56 H23         9.0319    4.5005    3.3644 H         1 <0>         0.4089
@<TRIPOS>BOND
     1    1    6 ar
     2    1    2 ar
     3    1   35 1
     4    2    3 ar
     5    2   36 1
     6    3    4 ar
     7    3   19 1
     8    4    5 ar
     9    4   37 1
    10    5    6 ar
    11    5   38 1
    12    6    7 1
    13    7    8 2
    14    7    9 am
    15    9   10 1
    16    9   39 1
    17   10   11 1
    18   10   16 1
    19   10   40 1
    20   11   12 1
    21   11   41 1
    22   11   42 1
    23   12   13 1
    24   12   43 1
    25   12   44 1
    26   13   14 2
    27   13   15 1
    28   16   17 2
    29   16   18 1
    30   19   20 1
    31   19   45 1
    32   20   21 1
    33   20   46 1
    34   20   47 1
    35   21   22 1
    36   21   48 1
    37   21   49 1
    38   22   23 1
    39   22   34 1
    40   22   24 1
    41   24   25 1
    42   24   50 1
    43   24   51 1
    44   25   26 1
    45   25   52 1
    46   26   31 1
    47   26   27 2
    48   27   28 1
    49   27   34 1
    50   28   29 1
    51   28   33 2
    52   29   30 2
    53   30   31 1
    54   30   32 1
    55   31   56 1
    56   32   53 1
    57   32   54 1
    58   34   55 1
@<TRIPOS>MOLECULE
CHEMBL23388__1
   56    58     0     0     0
SMALL
USER_CHARGES

@<TRIPOS>ATOM
      1 C1         -0.0169    1.3937    0.0097 C.ar      1 <0>        -0.0179
      2 C2          1.1662    2.0965    0.0022 C.ar      1 <0>        -0.2083
      3 C3          2.3811    1.4169   -0.0131 C.ar      1 <0>         0.2239
      4 C4          2.4034    0.0249   -0.0208 C.ar      1 <0>        -0.2019
      5 C5          1.2237   -0.6836   -0.0138 C.ar      1 <0>        -0.0356
      6 C6          0.0021   -0.0041    0.0020 C.ar      1 <0>        -0.1677
      7 C7         -1.2644   -0.7605    0.0105 C.2       1 <0>         0.5502
      8 O1         -2.3263   -0.1682    0.0243 O.2       1 <0>        -0.5613
      9 N1         -1.2445   -2.1081    0.0031 N.am      1 <0>        -0.6793
     10 C8         -2.5022   -2.8593    0.0116 C.3       1 <0>         0.0746
     11 C9         -2.2637   -4.2464    0.6114 C.3       1 <0>        -0.0821
     12 C10        -1.8670   -4.1047    2.0823 C.3       1 <0>        -0.1771
     13 C11        -1.6321   -5.4710    2.6731 C.2       1 <0>         0.4913
     14 O2         -1.7693   -6.4659    1.9818 O.co2     1 <0>        -0.6982
     15 O3         -1.3049   -5.5815    3.8424 O.co2     1 <0>        -0.7200
     16 C12        -3.0110   -3.0030   -1.3996 C.2       1 <0>         0.4986
     17 O4         -2.2242   -3.0459   -2.3300 O.co2     1 <0>        -0.6992
     18 O5         -4.2095   -3.0763   -1.6111 O.co2     1 <0>        -0.7030
     19 N2          3.5749    2.1299   -0.0211 N.pl3     1 <0>        -0.7466
     20 C13         4.8542    1.4162   -0.0371 C.3       1 <0>         0.1277
     21 C14         6.0023    2.4276   -0.0432 C.3       1 <0>        -0.1380
     22 C15         7.3384    1.6823   -0.0600 C.3       1 <0>         0.1475
     23 H1          7.3651    0.9933   -0.9042 H         1 <0>         0.0995
     24 C16         8.4926    2.6888   -0.1749 C.3       1 <0>         0.1195
     25 N3          8.4854    3.5401    1.0233 N.pl3     1 <0>        -0.7122
     26 C17         8.3378    2.9491    2.2684 C.2       1 <0>         0.3954
     27 C18         7.8488    1.6539    2.3651 C.2       1 <0>        -0.0855
     28 C19         7.7031    1.0746    3.6300 C.2       1 <0>         0.5400
     29 N4          8.0468    1.8014    4.7157 N.am      1 <0>        -0.6498
     30 C20         8.5244    3.0672    4.5679 C.2       1 <0>         0.6265
     31 N5          8.6630    3.6181    3.3809 N.2       1 <0>        -0.5929
     32 N6          8.8689    3.7869    5.6840 N.pl3     1 <0>        -0.8286
     33 O6          7.2743   -0.0631    3.7502 O.2       1 <0>        -0.5424
     34 N7          7.5071    0.9356    1.1970 N.pl3     1 <0>        -0.7273
     35 H2         -0.9590    1.9215    0.0260 H         1 <0>         0.1322
     36 H3          1.1522    3.1764    0.0078 H         1 <0>         0.1182
     37 H4          3.3474   -0.4995   -0.0326 H         1 <0>         0.1215
     38 H5          1.2416   -1.7634   -0.0204 H         1 <0>         0.1280
     39 H6         -0.3974   -2.5806   -0.0078 H         1 <0>         0.3903
     40 H7         -3.2399   -2.3261    0.6112 H         1 <0>         0.0767
     41 H8         -3.1771   -4.8365    0.5367 H         1 <0>         0.0715
     42 H9         -1.4631   -4.7456    0.0656 H         1 <0>         0.0597
     43 H10        -0.9536   -3.5146    2.1570 H         1 <0>         0.0517
     44 H11        -2.6677   -3.6056    2.6281 H         1 <0>         0.0524
     45 H12         3.5606    3.0997   -0.0161 H         1 <0>         0.3943
     46 H13         4.9299    0.7860    0.8490 H         1 <0>         0.0642
     47 H14         4.9126    0.7950   -0.9309 H         1 <0>         0.0573
     48 H15         5.9267    3.0578   -0.9294 H         1 <0>         0.0716
     49 H16         5.9440    3.0488    0.8505 H         1 <0>         0.0702
     50 H17         9.4405    2.1546   -0.2402 H         1 <0>         0.0681
     51 H18         8.3556    3.3046   -1.0638 H         1 <0>         0.0919
     52 H19         8.5829    4.5019    0.9439 H         1 <0>         0.4044
     53 H20         8.7709    3.3926    6.5647 H         1 <0>         0.4127
     54 H21         9.2105    4.6901    5.5923 H         1 <0>         0.4247
     55 H22         7.3869   -0.0266    1.2225 H         1 <0>         0.4063
     56 H23         7.9532    1.4200    5.6027 H         1 <0>         0.4122
@<TRIPOS>BOND
     1    1    6 ar
     2    1    2 ar
     3    1   35 1
     4    2    3 ar
     5    2   36 1
     6    3    4 ar
     7    3   19 1
     8    4    5 ar
     9    4   37 1
    10    5    6 ar
    11    5   38 1
    12    6    7 1
    13    7    8 2
    14    7    9 am
    15    9   10 1
    16    9   39 1
    17   10   11 1
    18   10   16 1
    19   10   40 1
    20   11   12 1
    21   11   41 1
    22   11   42 1
    23   12   13 1
    24   12   43 1
    25   12   44 1
    26   13   14 2
    27   13   15 1
    28   16   17 2
    29   16   18 1
    30   19   20 1
    31   19   45 1
    32   20   21 1
    33   20   46 1
    34   20   47 1
    35   21   22 1
    36   21   48 1
    37   21   49 1
    38   22   23 1
    39   22   34 1
    40   22   24 1
    41   24   25 1
    42   24   50 1
    43   24   51 1
    44   25   26 1
    45   25   52 1
    46   26   31 1
    47   26   27 2
    48   27   28 1
    49   27   34 1
    50   28   29 am
    51   28   33 2
    52   29   30 1
    53   29   56 1
    54   30   31 2
    55   30   32 1
    56   32   53 1
    57   32   54 1
    58   34   55 1
@<TRIPOS>MOLECULE
CHEMBL23388__2
   56    58     0     0     0
SMALL
USER_CHARGES

@<TRIPOS>ATOM
      1 C1         -0.0169    1.3937    0.0097 C.ar      1 <0>        -0.0182
      2 C2          1.1662    2.0965    0.0022 C.ar      1 <0>        -0.2079
      3 C3          2.3811    1.4169   -0.0131 C.ar      1 <0>         0.2230
      4 C4          2.4034    0.0249   -0.0208 C.ar      1 <0>        -0.2009
      5 C5          1.2237   -0.6836   -0.0138 C.ar      1 <0>        -0.0354
      6 C6          0.0021   -0.0041    0.0020 C.ar      1 <0>        -0.1668
      7 C7         -1.2644   -0.7605    0.0105 C.2       1 <0>         0.5501
      8 O1         -2.3263   -0.1682    0.0243 O.2       1 <0>        -0.5614
      9 N1         -1.2445   -2.1081    0.0031 N.am      1 <0>        -0.6791
     10 C8         -2.5022   -2.8593    0.0116 C.3       1 <0>         0.0746
     11 C9         -2.2758   -4.2399   -0.6078 C.3       1 <0>        -0.0824
     12 C10        -1.9084   -4.0824   -2.0846 C.3       1 <0>        -0.1766
     13 C11        -1.6854   -5.4422   -2.6946 C.2       1 <0>         0.4912
     14 O2         -1.8089   -6.4445   -2.0115 O.co2     1 <0>        -0.6976
     15 O3         -1.3815   -5.5401   -3.8713 O.co2     1 <0>        -0.7206
     16 C12        -2.9829   -3.0182    1.4310 C.2       1 <0>         0.4980
     17 O4         -4.1770   -3.0939    1.6654 O.co2     1 <0>        -0.7034
     18 O5         -2.1777   -3.0709    2.3450 O.co2     1 <0>        -0.6981
     19 N2          3.5749    2.1299   -0.0211 N.pl3     1 <0>        -0.7469
     20 C13         4.8542    1.4162   -0.0371 C.3       1 <0>         0.1265
     21 C14         6.0023    2.4276   -0.0432 C.3       1 <0>        -0.1367
     22 C15         7.3384    1.6823   -0.0600 C.3       1 <0>         0.1407
     23 H1          7.3656    0.9931   -0.9040 H         1 <0>         0.1020
     24 C16         8.4935    2.6887   -0.1734 C.3       1 <0>         0.1256
     25 N3          8.4931    3.5261    1.0349 N.pl3     1 <0>        -0.7329
     26 C17         8.3440    2.9261    2.2694 C.2       1 <0>         0.3287
     27 C18         7.8570    1.6540    2.3640 C.2       1 <0>        -0.0351
     28 C19         7.7107    1.0690    3.6380 C.2       1 <0>         0.5368
     29 N4          8.0550    1.7721    4.7295 N.2       1 <0>        -0.6281
     30 C20         8.5259    2.9963    4.6271 C.2       1 <0>         0.6535
     31 N5          8.6817    3.5974    3.4162 N.pl3     1 <0>        -0.6361
     32 N6          8.8667    3.6815    5.7651 N.pl3     1 <0>        -0.8267
     33 O6          7.2740   -0.0683    3.7486 O.2       1 <0>        -0.5202
     34 N7          7.5084    0.9365    1.1975 N.pl3     1 <0>        -0.7234
     35 H2         -0.9590    1.9215    0.0260 H         1 <0>         0.1323
     36 H3          1.1522    3.1764    0.0078 H         1 <0>         0.1178
     37 H4          3.3474   -0.4995   -0.0326 H         1 <0>         0.1219
     38 H5          1.2416   -1.7634   -0.0204 H         1 <0>         0.1285
     39 H6         -0.3974   -2.5806   -0.0078 H         1 <0>         0.3904
     40 H7         -3.2516   -2.3197   -0.5676 H         1 <0>         0.0767
     41 H8         -1.4645   -4.7448   -0.0833 H         1 <0>         0.0599
     42 H9         -3.1876   -4.8309   -0.5212 H         1 <0>         0.0716
     43 H10        -2.7197   -3.5775   -2.6090 H         1 <0>         0.0523
     44 H11        -0.9966   -3.4914   -2.1711 H         1 <0>         0.0515
     45 H12         3.5606    3.0997   -0.0161 H         1 <0>         0.3936
     46 H13         4.9299    0.7860    0.8490 H         1 <0>         0.0655
     47 H14         4.9126    0.7950   -0.9309 H         1 <0>         0.0583
     48 H15         5.9267    3.0578   -0.9294 H         1 <0>         0.0719
     49 H16         5.9440    3.0488    0.8505 H         1 <0>         0.0691
     50 H17         9.4405    2.1544   -0.2503 H         1 <0>         0.0701
     51 H18         8.3510    3.3144   -1.0545 H         1 <0>         0.0938
     52 H19         8.5961    4.4881    0.9657 H         1 <0>         0.3986
     53 H20         8.7596    3.2630    6.6336 H         1 <0>         0.4303
     54 H21         9.2149    4.5846    5.7015 H         1 <0>         0.4080
     55 H22         7.3846   -0.0252    1.2241 H         1 <0>         0.4126
     56 H23         9.0319    4.5005    3.3644 H         1 <0>         0.4090
@<TRIPOS>BOND
     1    1    6 ar
     2    1    2 ar
     3    1   35 1
     4    2    3 ar
     5    2   36 1
     6    3    4 ar
     7    3   19 1
     8    4    5 ar
     9    4   37 1
    10    5    6 ar
    11    5   38 1
    12    6    7 1
    13    7    8 2
    14    7    9 am
    15    9   10 1
    16    9   39 1
    17   10   11 1
    18   10   16 1
    19   10   40 1
    20   11   12 1
    21   11   41 1
    22   11   42 1
    23   12   13 1
    24   12   43 1
    25   12   44 1
    26   13   14 2
    27   13   15 1
    28   16   17 2
    29   16   18 1
    30   19   20 1
    31   19   45 1
    32   20   21 1
    33   20   46 1
    34   20   47 1
    35   21   22 1
    36   21   48 1
    37   21   49 1
    38   22   23 1
    39   22   34 1
    40   22   24 1
    41   24   25 1
    42   24   50 1
    43   24   51 1
    44   25   26 1
    45   25   52 1
    46   26   31 1
    47   26   27 2
    48   27   28 1
    49   27   34 1
    50   28   29 1
    51   28   33 2
    52   29   30 2
    53   30   31 1
    54   30   32 1
    55   31   56 1
    56   32   53 1
    57   32   54 1
    58   34   55 1
@<TRIPOS>MOLECULE
CHEMBL23388__3
   56    58     0     0     0
SMALL
USER_CHARGES

@<TRIPOS>ATOM
      1 C1         -0.0169    1.3937    0.0097 C.ar      1 <0>        -0.0183
      2 C2          1.1662    2.0965    0.0022 C.ar      1 <0>        -0.2080
      3 C3          2.3811    1.4169   -0.0131 C.ar      1 <0>         0.2228
      4 C4          2.4034    0.0249   -0.0208 C.ar      1 <0>        -0.2019
      5 C5          1.2237   -0.6836   -0.0138 C.ar      1 <0>        -0.0366
      6 C6          0.0021   -0.0041    0.0020 C.ar      1 <0>        -0.1651
      7 C7         -1.2644   -0.7605    0.0105 C.2       1 <0>         0.5571
      8 O1         -2.3263   -0.1682    0.0243 O.2       1 <0>        -0.5628
      9 N1         -1.2445   -2.1081    0.0031 N.am      1 <0>        -0.6797
     10 C8         -2.5022   -2.8593    0.0116 C.3       1 <0>         0.0736
     11 C9         -2.2758   -4.2399   -0.6078 C.3       1 <0>        -0.0803
     12 C10        -1.9084   -4.0824   -2.0846 C.3       1 <0>        -0.1774
     13 C11        -1.6854   -5.4422   -2.6946 C.2       1 <0>         0.4910
     14 O2         -1.8089   -6.4445   -2.0115 O.co2     1 <0>        -0.6974
     15 O3         -1.3815   -5.5401   -3.8713 O.co2     1 <0>        -0.7211
     16 C12        -2.9829   -3.0182    1.4310 C.2       1 <0>         0.4954
     17 O4         -2.3350   -2.5475    2.3503 O.co2     1 <0>        -0.6966
     18 O5         -4.0198   -3.6173    1.6600 O.co2     1 <0>        -0.7022
     19 N2          3.5749    2.1299   -0.0211 N.pl3     1 <0>        -0.7470
     20 C13         4.8542    1.4162   -0.0371 C.3       1 <0>         0.1279
     21 C14         6.0023    2.4276   -0.0432 C.3       1 <0>        -0.1379
     22 C15         7.3384    1.6823   -0.0600 C.3       1 <0>         0.1474
     23 H1          7.3651    0.9933   -0.9042 H         1 <0>         0.0997
     24 C16         8.4926    2.6888   -0.1749 C.3       1 <0>         0.1194
     25 N3          8.4854    3.5401    1.0233 N.pl3     1 <0>        -0.7120
     26 C17         8.3378    2.9491    2.2684 C.2       1 <0>         0.3957
     27 C18         7.8488    1.6539    2.3651 C.2       1 <0>        -0.0855
     28 C19         7.7031    1.0746    3.6300 C.2       1 <0>         0.5401
     29 N4          8.0468    1.8014    4.7157 N.am      1 <0>        -0.6498
     30 C20         8.5244    3.0672    4.5679 C.2       1 <0>         0.6263
     31 N5          8.6630    3.6181    3.3809 N.2       1 <0>        -0.5926
     32 N6          8.8689    3.7869    5.6840 N.pl3     1 <0>        -0.8287
     33 O6          7.2743   -0.0631    3.7502 O.2       1 <0>        -0.5435
     34 N7          7.5071    0.9356    1.1970 N.pl3     1 <0>        -0.7272
     35 H2         -0.9590    1.9215    0.0260 H         1 <0>         0.1319
     36 H3          1.1522    3.1764    0.0078 H         1 <0>         0.1179
     37 H4          3.3474   -0.4995   -0.0326 H         1 <0>         0.1210
     38 H5          1.2416   -1.7634   -0.0204 H         1 <0>         0.1270
     39 H6         -0.3974   -2.5806   -0.0078 H         1 <0>         0.3881
     40 H7         -3.2516   -2.3197   -0.5676 H         1 <0>         0.0768
     41 H8         -1.4645   -4.7448   -0.0833 H         1 <0>         0.0544
     42 H9         -3.1876   -4.8309   -0.5212 H         1 <0>         0.0781
     43 H10        -2.7197   -3.5775   -2.6090 H         1 <0>         0.0519
     44 H11        -0.9966   -3.4914   -2.1711 H         1 <0>         0.0506
     45 H12         3.5606    3.0997   -0.0161 H         1 <0>         0.3942
     46 H13         4.9299    0.7860    0.8490 H         1 <0>         0.0637
     47 H14         4.9126    0.7950   -0.9309 H         1 <0>         0.0573
     48 H15         5.9267    3.0578   -0.9294 H         1 <0>         0.0717
     49 H16         5.9440    3.0488    0.8505 H         1 <0>         0.0701
     50 H17         9.4405    2.1546   -0.2402 H         1 <0>         0.0682
     51 H18         8.3556    3.3046   -1.0638 H         1 <0>         0.0921
     52 H19         8.5829    4.5019    0.9439 H         1 <0>         0.4045
     53 H20         8.7709    3.3926    6.5647 H         1 <0>         0.4126
     54 H21         9.2105    4.6901    5.5923 H         1 <0>         0.4247
     55 H22         7.3869   -0.0266    1.2225 H         1 <0>         0.4062
     56 H23         7.9532    1.4200    5.6027 H         1 <0>         0.4120
@<TRIPOS>BOND
     1    1    6 ar
     2    1    2 ar
     3    1   35 1
     4    2    3 ar
     5    2   36 1
     6    3    4 ar
     7    3   19 1
     8    4    5 ar
     9    4   37 1
    10    5    6 ar
    11    5   38 1
    12    6    7 1
    13    7    8 2
    14    7    9 am
    15    9   10 1
    16    9   39 1
    17   10   11 1
    18   10   16 1
    19   10   40 1
    20   11   12 1
    21   11   41 1
    22   11   42 1
    23   12   13 1
    24   12   43 1
    25   12   44 1
    26   13   14 2
    27   13   15 1
    28   16   17 2
    29   16   18 1
    30   19   20 1
    31   19   45 1
    32   20   21 1
    33   20   46 1
    34   20   47 1
    35   21   22 1
    36   21   48 1
    37   21   49 1
    38   22   23 1
    39   22   34 1
    40   22   24 1
    41   24   25 1
    42   24   50 1
    43   24   51 1
    44   25   26 1
    45   25   52 1
    46   26   31 1
    47   26   27 2
    48   27   28 1
    49   27   34 1
    50   28   29 am
    51   28   33 2
    52   29   30 1
    53   29   56 1
    54   30   31 2
    55   30   32 1
    56   32   53 1
    57   32   54 1
    58   34   55 1
@<TRIPOS>MOLECULE
CHEMBL490934
   52    54     0     0     0
SMALL
USER_CHARGES

@<TRIPOS>ATOM
      1 C1         -0.0167    1.3794    0.0096 C.ar      1 <0>        -0.1281
      2 C2          1.1667    2.0884    0.0021 C.ar      1 <0>        -0.0647
      3 C3          2.3848    1.4070   -0.0132 C.ar      1 <0>        -0.1087
      4 C4          2.3966    0.0113   -0.0208 C.ar      1 <0>        -0.0837
      5 C5          1.2061   -0.6856   -0.0132 C.ar      1 <0>        -0.1234
      6 C6          0.0021   -0.0041    0.0020 C.ar      1 <0>        -0.0787
      7 C7         -1.2946   -0.7719    0.0103 C.3       1 <0>        -0.0758
      8 C8         -1.7472   -1.0241   -1.4293 C.3       1 <0>        -0.1138
      9 C9         -3.0637   -1.8037   -1.4209 C.3       1 <0>        -0.0320
     10 C10        -3.5095   -2.0520   -2.8389 C.2       1 <0>        -0.1597
     11 C11        -3.2234   -3.0973   -3.6289 C.2       1 <0>        -0.0792
     12 C12        -3.7633   -3.1365   -4.9770 C.2       1 <0>        -0.2933
     13 C13        -3.5992   -4.1336   -5.9897 C.2       1 <0>         0.5745
     14 O1         -2.9251   -5.1265   -5.7753 O.2       1 <0>        -0.5235
     15 N1         -4.1990   -3.9613   -7.1819 N.am      1 <0>        -0.6540
     16 H1         -4.0901   -4.6351   -7.8711 H         1 <0>         0.4144
     17 C14        -4.9574   -2.8577   -7.4396 C.2       1 <0>         0.6483
     18 N2         -5.1257   -1.9242   -6.5264 N.2       1 <0>        -0.5499
     19 C15        -4.5613   -2.0320   -5.3293 C.2       1 <0>         0.1523
     20 S1         -4.5497   -1.0303   -3.8647 S.3       1 <0>         0.1331
     21 N3         -5.5534   -2.7177   -8.6683 N.pl3     1 <0>        -0.8159
     22 C16         3.6569    2.1603   -0.0218 C.2       1 <0>         0.5500
     23 O2          3.6435    3.3757   -0.0155 O.2       1 <0>        -0.5551
     24 N4          4.8314    1.4994   -0.0366 N.am      1 <0>        -0.6758
     25 C17         6.0919    2.2459   -0.0451 C.3       1 <0>         0.0726
     26 H2          5.9814    3.1523    0.5501 H         1 <0>         0.0780
     27 C18         7.2027    1.3778    0.5494 C.3       1 <0>        -0.0805
     28 C19         6.9032    1.1060    2.0250 C.3       1 <0>        -0.1779
     29 C20         7.9973    0.2510    2.6105 C.2       1 <0>         0.4910
     30 O3          8.9302   -0.1078    1.9123 O.co2     1 <0>        -0.6971
     31 O4          7.9496   -0.0820    3.7824 O.co2     1 <0>        -0.7203
     32 C21         6.4472    2.6155   -1.4622 C.2       1 <0>         0.4957
     33 O5          5.7154    2.2860   -2.3799 O.co2     1 <0>        -0.6968
     34 O6          7.4666    3.2441   -1.6909 O.co2     1 <0>        -0.7002
     35 H3         -0.9598    1.9054    0.0260 H         1 <0>         0.1217
     36 H4          1.1508    3.1682    0.0077 H         1 <0>         0.1329
     37 H5          3.3358   -0.5219   -0.0330 H         1 <0>         0.1283
     38 H6          1.2138   -1.7656   -0.0191 H         1 <0>         0.1234
     39 H7         -1.1489   -1.7256    0.5176 H         1 <0>         0.0734
     40 H8         -2.0557   -0.1941    0.5345 H         1 <0>         0.0721
     41 H9         -1.8929   -0.0704   -1.9367 H         1 <0>         0.0699
     42 H10        -0.9861   -1.6019   -1.9536 H         1 <0>         0.0717
     43 H11        -2.9179   -2.7573   -0.9136 H         1 <0>         0.0896
     44 H12        -3.8248   -1.2258   -0.8967 H         1 <0>         0.0811
     45 H13        -2.5985   -3.9005   -3.2671 H         1 <0>         0.1408
     46 H14        -5.4336   -3.4012   -9.3461 H         1 <0>         0.4167
     47 H15        -6.0943   -1.9354   -8.8588 H         1 <0>         0.4308
     48 H16         4.8421    0.5294   -0.0416 H         1 <0>         0.3893
     49 H17         7.2537    0.4325    0.0090 H         1 <0>         0.0550
     50 H18         8.1565    1.8981    0.4621 H         1 <0>         0.0792
     51 H19         6.8522    2.0513    2.5654 H         1 <0>         0.0523
     52 H20         5.9494    0.5857    2.1123 H         1 <0>         0.0501
@<TRIPOS>BOND
     1    1    6 ar
     2    1    2 ar
     3    1   35 1
     4    2    3 ar
     5    2   36 1
     6    3    4 ar
     7    3   22 1
     8    4    5 ar
     9    4   37 1
    10    5    6 ar
    11    5   38 1
    12    6    7 1
    13    7    8 1
    14    7   39 1
    15    7   40 1
    16    8    9 1
    17    8   41 1
    18    8   42 1
    19    9   10 1
    20    9   43 1
    21    9   44 1
    22   10   20 1
    23   10   11 2
    24   11   12 1
    25   11   45 1
    26   12   19 2
    27   12   13 1
    28   13   14 2
    29   13   15 am
    30   15   16 1
    31   15   17 1
    32   17   18 2
    33   17   21 1
    34   18   19 1
    35   19   20 1
    36   21   46 1
    37   21   47 1
    38   22   23 2
    39   22   24 am
    40   24   25 1
    41   24   48 1
    42   25   26 1
    43   25   27 1
    44   25   32 1
    45   27   28 1
    46   27   49 1
    47   27   50 1
    48   28   29 1
    49   28   51 1
    50   28   52 1
    51   29   30 2
    52   29   31 1
    53   32   33 2
    54   32   34 1
@<TRIPOS>MOLECULE
CHEMBL491104
   55    57     0     0     0
SMALL
USER_CHARGES

@<TRIPOS>ATOM
      1 C1         -0.0167    1.3794    0.0096 C.ar      1 <0>        -0.1291
      2 C2          1.1667    2.0884    0.0021 C.ar      1 <0>        -0.0642
      3 C3          2.3848    1.4070   -0.0132 C.ar      1 <0>        -0.1118
      4 C4          2.3966    0.0113   -0.0208 C.ar      1 <0>        -0.0825
      5 C5          1.2061   -0.6856   -0.0132 C.ar      1 <0>        -0.1241
      6 C6          0.0021   -0.0041    0.0020 C.ar      1 <0>        -0.0769
      7 C7         -1.2946   -0.7719    0.0103 C.3       1 <0>        -0.0766
      8 C8         -1.7472   -1.0241   -1.4293 C.3       1 <0>        -0.1161
      9 C9         -3.0637   -1.8037   -1.4209 C.3       1 <0>        -0.1151
     10 C10        -3.5163   -2.0558   -2.8605 C.3       1 <0>        -0.0358
     11 C11        -4.8129   -2.8237   -2.8522 C.2       1 <0>        -0.1567
     12 C12        -6.0643   -2.3412   -2.8431 C.2       1 <0>        -0.0823
     13 C13        -7.1823   -3.2689   -2.8362 C.2       1 <0>        -0.2938
     14 C14        -8.5864   -2.9950   -2.8267 C.2       1 <0>         0.5746
     15 O1         -8.9913   -1.8452   -2.8233 O.2       1 <0>        -0.5252
     16 N1         -9.4544   -4.0234   -2.8220 N.am      1 <0>        -0.6543
     17 H1        -10.4072   -3.8416   -2.8155 H         1 <0>         0.4142
     18 C15        -9.0201   -5.3160   -2.8265 C.2       1 <0>         0.6476
     19 N2         -7.7339   -5.5975   -2.8353 N.2       1 <0>        -0.5491
     20 C16        -6.8243   -4.6301   -2.8399 C.2       1 <0>         0.1508
     21 S1         -5.0504   -4.5905   -2.8600 S.3       1 <0>         0.1357
     22 N3         -9.9366   -6.3380   -2.8214 N.pl3     1 <0>        -0.8159
     23 C17         3.6569    2.1603   -0.0218 C.2       1 <0>         0.5431
     24 O2          3.6435    3.3757   -0.0155 O.2       1 <0>        -0.5536
     25 N4          4.8314    1.4994   -0.0366 N.am      1 <0>        -0.6753
     26 C18         6.0919    2.2459   -0.0451 C.3       1 <0>         0.0735
     27 H2          5.9814    3.1523    0.5501 H         1 <0>         0.0778
     28 C19         7.2027    1.3778    0.5494 C.3       1 <0>        -0.0824
     29 C20         6.9032    1.1060    2.0250 C.3       1 <0>        -0.1772
     30 C21         7.9973    0.2510    2.6105 C.2       1 <0>         0.4911
     31 O3          8.9302   -0.1078    1.9123 O.co2     1 <0>        -0.6975
     32 O4          7.9496   -0.0820    3.7824 O.co2     1 <0>        -0.7196
     33 C22         6.4472    2.6155   -1.4622 C.2       1 <0>         0.4985
     34 O5          7.0818    3.6322   -1.6861 O.co2     1 <0>        -0.7011
     35 O6          6.1002    1.8979   -2.3847 O.co2     1 <0>        -0.6986
     36 H3         -0.9598    1.9054    0.0260 H         1 <0>         0.1215
     37 H4          1.1508    3.1682    0.0077 H         1 <0>         0.1330
     38 H5          3.3358   -0.5219   -0.0330 H         1 <0>         0.1293
     39 H6          1.2138   -1.7656   -0.0191 H         1 <0>         0.1236
     40 H7         -1.1489   -1.7256    0.5176 H         1 <0>         0.0714
     41 H8         -2.0557   -0.1941    0.5345 H         1 <0>         0.0700
     42 H9         -1.8929   -0.0704   -1.9367 H         1 <0>         0.0674
     43 H10        -0.9861   -1.6019   -1.9536 H         1 <0>         0.0686
     44 H11        -2.9179   -2.7573   -0.9136 H         1 <0>         0.0665
     45 H12        -3.8248   -1.2258   -0.8967 H         1 <0>         0.0665
     46 H13        -3.6620   -1.1021   -3.3679 H         1 <0>         0.0905
     47 H14        -2.7551   -2.6337   -3.3848 H         1 <0>         0.0835
     48 H15        -6.2388   -1.2754   -2.8406 H         1 <0>         0.1401
     49 H16       -10.8858   -6.1382   -2.8146 H         1 <0>         0.4167
     50 H17        -9.6350   -7.2599   -2.8246 H         1 <0>         0.4311
     51 H18         4.8421    0.5294   -0.0416 H         1 <0>         0.3914
     52 H19         7.2537    0.4325    0.0090 H         1 <0>         0.0603
     53 H20         8.1565    1.8981    0.4621 H         1 <0>         0.0727
     54 H21         6.8522    2.0513    2.5654 H         1 <0>         0.0527
     55 H22         5.9494    0.5857    2.1123 H         1 <0>         0.0511
@<TRIPOS>BOND
     1    1    6 ar
     2    1    2 ar
     3    1   36 1
     4    2    3 ar
     5    2   37 1
     6    3    4 ar
     7    3   23 1
     8    4    5 ar
     9    4   38 1
    10    5    6 ar
    11    5   39 1
    12    6    7 1
    13    7    8 1
    14    7   40 1
    15    7   41 1
    16    8    9 1
    17    8   42 1
    18    8   43 1
    19    9   10 1
    20    9   44 1
    21    9   45 1
    22   10   11 1
    23   10   46 1
    24   10   47 1
    25   11   21 1
    26   11   12 2
    27   12   13 1
    28   12   48 1
    29   13   20 2
    30   13   14 1
    31   14   15 2
    32   14   16 am
    33   16   17 1
    34   16   18 1
    35   18   19 2
    36   18   22 1
    37   19   20 1
    38   20   21 1
    39   22   49 1
    40   22   50 1
    41   23   24 2
    42   23   25 am
    43   25   26 1
    44   25   51 1
    45   26   27 1
    46   26   28 1
    47   26   33 1
    48   28   29 1
    49   28   52 1
    50   28   53 1
    51   29   30 1
    52   29   54 1
    53   29   55 1
    54   30   31 2
    55   30   32 1
    56   33   34 2
    57   33   35 1
@<TRIPOS>MOLECULE
CHEMBL117353
   58    60     0     0     0
SMALL
USER_CHARGES

@<TRIPOS>ATOM
      1 C1         -0.0167    1.3794    0.0096 C.ar      1 <0>        -0.1290
      2 C2          1.1667    2.0884    0.0021 C.ar      1 <0>        -0.0643
      3 C3          2.3848    1.4070   -0.0132 C.ar      1 <0>        -0.1103
      4 C4          2.3966    0.0113   -0.0208 C.ar      1 <0>        -0.0830
      5 C5          1.2061   -0.6856   -0.0132 C.ar      1 <0>        -0.1248
      6 C6          0.0021   -0.0041    0.0020 C.ar      1 <0>        -0.0772
      7 C7         -1.2946   -0.7719    0.0103 C.3       1 <0>        -0.0769
      8 C8         -1.7472   -1.0241   -1.4293 C.3       1 <0>        -0.1176
      9 C9         -3.0637   -1.8037   -1.4209 C.3       1 <0>        -0.1106
     10 C10        -3.5163   -2.0558   -2.8605 C.3       1 <0>        -0.1044
     11 C11        -4.8837   -2.7409   -2.8556 C.3       1 <0>        -0.0209
     12 C12        -5.2388   -3.2094   -4.2399 C.2       1 <0>        -0.3955
     13 C13        -4.2770   -3.3945   -5.2166 C.2       1 <0>         0.4870
     14 N1         -4.6393   -3.8202   -6.4346 N.2       1 <0>        -0.6217
     15 C14        -5.8997   -4.0621   -6.7247 C.2       1 <0>         0.6598
     16 N2         -6.8839   -3.8904   -5.8007 N.am      1 <0>        -0.6621
     17 C15        -6.5781   -3.4681   -4.5566 C.2       1 <0>         0.5558
     18 O1         -7.4544   -3.3144   -3.7204 O.2       1 <0>        -0.5547
     19 N3         -6.2277   -4.4948   -7.9819 N.pl3     1 <0>        -0.8229
     20 N4         -2.9435   -3.1409   -4.9564 N.pl3     1 <0>        -0.7048
     21 C16        -2.5073   -2.9732   -3.5638 C.3       1 <0>         0.1239
     22 C17         3.6569    2.1603   -0.0218 C.2       1 <0>         0.5478
     23 O2          3.6435    3.3757   -0.0155 O.2       1 <0>        -0.5558
     24 N5          4.8314    1.4994   -0.0366 N.am      1 <0>        -0.6747
     25 C18         6.0919    2.2459   -0.0451 C.3       1 <0>         0.0724
     26 H1          5.9699    3.1583   -0.6287 H         1 <0>         0.0782
     27 C19         7.1909    1.3839   -0.6698 C.3       1 <0>        -0.0811
     28 C20         6.8626    1.1271   -2.1419 C.3       1 <0>        -0.1773
     29 C21         7.9450    0.2781   -2.7573 C.2       1 <0>         0.4910
     30 O3          8.8913   -0.0876   -2.0810 O.co2     1 <0>        -0.6972
     31 O4          7.8745   -0.0430   -3.9313 O.co2     1 <0>        -0.7200
     32 C22         6.4748    2.6012    1.3685 C.2       1 <0>         0.4970
     33 O5          5.8674    2.1124    2.3058 O.co2     1 <0>        -0.6978
     34 O6          7.3921    3.3775    1.5748 O.co2     1 <0>        -0.7008
     35 H2         -0.9598    1.9054    0.0260 H         1 <0>         0.1211
     36 H3          1.1508    3.1682    0.0077 H         1 <0>         0.1326
     37 H4          3.3358   -0.5219   -0.0330 H         1 <0>         0.1284
     38 H5          1.2138   -1.7656   -0.0191 H         1 <0>         0.1230
     39 H6         -1.1489   -1.7256    0.5176 H         1 <0>         0.0712
     40 H7         -2.0557   -0.1941    0.5345 H         1 <0>         0.0702
     41 H8         -1.8929   -0.0704   -1.9367 H         1 <0>         0.0657
     42 H9         -0.9861   -1.6019   -1.9536 H         1 <0>         0.0667
     43 H10        -2.9179   -2.7573   -0.9136 H         1 <0>         0.0664
     44 H11        -3.8248   -1.2258   -0.8967 H         1 <0>         0.0691
     45 H12        -3.5820   -1.1077   -3.3943 H         1 <0>         0.0787
     46 H13        -4.8559   -3.5967   -2.1812 H         1 <0>         0.0590
     47 H14        -5.6391   -2.0359   -2.5086 H         1 <0>         0.0710
     48 H15        -5.5339   -4.6201   -8.6481 H         1 <0>         0.4281
     49 H16        -7.1538   -4.6759   -8.2061 H         1 <0>         0.4139
     50 H17        -2.3046   -3.0748   -5.6832 H         1 <0>         0.4097
     51 H18        -1.5168   -2.5191   -3.5397 H         1 <0>         0.0948
     52 H19        -2.4815   -3.9428   -3.0664 H         1 <0>         0.0688
     53 H20         4.8421    0.5294   -0.0416 H         1 <0>         0.3899
     54 H21         8.1462    1.9034   -0.5958 H         1 <0>         0.0772
     55 H22         7.2523    0.4333   -0.1400 H         1 <0>         0.0565
     56 H23         5.9072    0.6076   -2.2159 H         1 <0>         0.0503
     57 H24         6.8012    2.0777   -2.6717 H         1 <0>         0.0525
     58 H25        -7.8070   -4.0717   -6.0371 H         1 <0>         0.4079
@<TRIPOS>BOND
     1    1    6 ar
     2    1    2 ar
     3    1   35 1
     4    2    3 ar
     5    2   36 1
     6    3    4 ar
     7    3   22 1
     8    4    5 ar
     9    4   37 1
    10    5    6 ar
    11    5   38 1
    12    6    7 1
    13    7    8 1
    14    7   39 1
    15    7   40 1
    16    8    9 1
    17    8   41 1
    18    8   42 1
    19    9   10 1
    20    9   43 1
    21    9   44 1
    22   10   21 1
    23   10   11 1
    24   10   45 1
    25   11   12 1
    26   11   46 1
    27   11   47 1
    28   12   17 1
    29   12   13 2
    30   13   14 1
    31   13   20 1
    32   14   15 2
    33   15   16 1
    34   15   19 1
    35   16   17 am
    36   16   58 1
    37   17   18 2
    38   19   48 1
    39   19   49 1
    40   20   21 1
    41   20   50 1
    42   21   51 1
    43   21   52 1
    44   22   23 2
    45   22   24 am
    46   24   25 1
    47   24   53 1
    48   25   26 1
    49   25   27 1
    50   25   32 1
    51   27   28 1
    52   27   54 1
    53   27   55 1
    54   28   29 1
    55   28   56 1
    56   28   57 1
    57   29   30 2
    58   29   31 1
    59   32   33 2
    60   32   34 1
@<TRIPOS>MOLECULE
CHEMBL117353__1
   58    60     0     0     0
SMALL
USER_CHARGES

@<TRIPOS>ATOM
      1 C1         -0.0167    1.3794    0.0096 C.ar      1 <0>        -0.1289
      2 C2          1.1667    2.0884    0.0021 C.ar      1 <0>        -0.0642
      3 C3          2.3848    1.4070   -0.0132 C.ar      1 <0>        -0.1099
      4 C4          2.3966    0.0113   -0.0208 C.ar      1 <0>        -0.0832
      5 C5          1.2061   -0.6856   -0.0132 C.ar      1 <0>        -0.1251
      6 C6          0.0021   -0.0041    0.0020 C.ar      1 <0>        -0.0776
      7 C7         -1.2946   -0.7719    0.0103 C.3       1 <0>        -0.0773
      8 C8         -1.7472   -1.0241   -1.4293 C.3       1 <0>        -0.1172
      9 C9         -3.0637   -1.8037   -1.4209 C.3       1 <0>        -0.1114
     10 C10        -3.5163   -2.0558   -2.8605 C.3       1 <0>        -0.1069
     11 C11        -4.8824   -2.7435   -2.8561 C.3       1 <0>        -0.0292
     12 C12        -5.2335   -3.2205   -4.2388 C.2       1 <0>        -0.3497
     13 C13        -4.2873   -3.4077   -5.1977 C.2       1 <0>         0.4492
     14 N1         -4.6688   -3.8528   -6.4379 N.pl3     1 <0>        -0.6542
     15 C14        -5.9809   -4.0974   -6.7038 C.2       1 <0>         0.6596
     16 N2         -6.9060   -3.9151   -5.7862 N.2       1 <0>        -0.6370
     17 C15        -6.5834   -3.4840   -4.5570 C.2       1 <0>         0.5458
     18 O1         -7.4554   -3.3197   -3.7159 O.2       1 <0>        -0.5333
     19 N3         -6.3446   -4.5403   -7.9478 N.pl3     1 <0>        -0.8247
     20 N4         -2.9574   -3.1541   -4.9512 N.pl3     1 <0>        -0.7301
     21 C16        -2.5073   -2.9735   -3.5644 C.3       1 <0>         0.1291
     22 C17         3.6569    2.1603   -0.0218 C.2       1 <0>         0.5475
     23 O2          3.6435    3.3757   -0.0155 O.2       1 <0>        -0.5554
     24 N5          4.8314    1.4994   -0.0366 N.am      1 <0>        -0.6746
     25 C18         6.0919    2.2459   -0.0451 C.3       1 <0>         0.0724
     26 H1          5.9699    3.1583   -0.6287 H         1 <0>         0.0783
     27 C19         7.1909    1.3839   -0.6698 C.3       1 <0>        -0.0812
     28 C20         6.8626    1.1271   -2.1419 C.3       1 <0>        -0.1772
     29 C21         7.9450    0.2781   -2.7573 C.2       1 <0>         0.4910
     30 O3          8.8913   -0.0876   -2.0810 O.co2     1 <0>        -0.6968
     31 O4          7.8745   -0.0430   -3.9313 O.co2     1 <0>        -0.7204
     32 C22         6.4748    2.6012    1.3685 C.2       1 <0>         0.4969
     33 O5          5.8674    2.1124    2.3058 O.co2     1 <0>        -0.6977
     34 O6          7.3921    3.3775    1.5748 O.co2     1 <0>        -0.7005
     35 H2         -0.9598    1.9054    0.0260 H         1 <0>         0.1214
     36 H3          1.1508    3.1682    0.0077 H         1 <0>         0.1329
     37 H4          3.3358   -0.5219   -0.0330 H         1 <0>         0.1284
     38 H5          1.2138   -1.7656   -0.0191 H         1 <0>         0.1227
     39 H6         -1.1489   -1.7256    0.5176 H         1 <0>         0.0714
     40 H7         -2.0557   -0.1941    0.5345 H         1 <0>         0.0710
     41 H8         -1.8929   -0.0704   -1.9367 H         1 <0>         0.0658
     42 H9         -0.9861   -1.6019   -1.9536 H         1 <0>         0.0655
     43 H10        -2.9179   -2.7573   -0.9136 H         1 <0>         0.0673
     44 H11        -3.8248   -1.2258   -0.8967 H         1 <0>         0.0712
     45 H12        -3.5829   -1.1078   -3.3943 H         1 <0>         0.0798
     46 H13        -4.8549   -3.5956   -2.1769 H         1 <0>         0.0659
     47 H14        -5.6400   -2.0381   -2.5147 H         1 <0>         0.0793
     48 H15        -5.6693   -4.6771   -8.6305 H         1 <0>         0.4098
     49 H16        -7.2775   -4.7172   -8.1461 H         1 <0>         0.4303
     50 H17        -2.3249   -3.0951   -5.6842 H         1 <0>         0.4045
     51 H18        -1.5194   -2.5130   -3.5539 H         1 <0>         0.0973
     52 H19        -2.4710   -3.9386   -3.0592 H         1 <0>         0.0717
     53 H20         4.8421    0.5294   -0.0416 H         1 <0>         0.3898
     54 H21         8.1462    1.9034   -0.5958 H         1 <0>         0.0773
     55 H22         7.2523    0.4333   -0.1400 H         1 <0>         0.0565
     56 H23         5.9072    0.6076   -2.2159 H         1 <0>         0.0500
     57 H24         6.8012    2.0777   -2.6717 H         1 <0>         0.0525
     58 H25        -4.0013   -3.9933   -7.1275 H         1 <0>         0.4113
@<TRIPOS>BOND
     1    1    6 ar
     2    1    2 ar
     3    1   35 1
     4    2    3 ar
     5    2   36 1
     6    3    4 ar
     7    3   22 1
     8    4    5 ar
     9    4   37 1
    10    5    6 ar
    11    5   38 1
    12    6    7 1
    13    7    8 1
    14    7   39 1
    15    7   40 1
    16    8    9 1
    17    8   41 1
    18    8   42 1
    19    9   10 1
    20    9   43 1
    21    9   44 1
    22   10   21 1
    23   10   11 1
    24   10   45 1
    25   11   12 1
    26   11   46 1
    27   11   47 1
    28   12   17 1
    29   12   13 2
    30   13   14 1
    31   13   20 1
    32   14   15 1
    33   14   58 1
    34   15   16 2
    35   15   19 1
    36   16   17 1
    37   17   18 2
    38   19   48 1
    39   19   49 1
    40   20   21 1
    41   20   50 1
    42   21   51 1
    43   21   52 1
    44   22   23 2
    45   22   24 am
    46   24   25 1
    47   24   53 1
    48   25   26 1
    49   25   27 1
    50   25   32 1
    51   27   28 1
    52   27   54 1
    53   27   55 1
    54   28   29 1
    55   28   56 1
    56   28   57 1
    57   29   30 2
    58   29   31 1
    59   32   33 2
    60   32   34 1
@<TRIPOS>MOLECULE
CHEMBL117353__2
   58    60     0     0     0
SMALL
USER_CHARGES

@<TRIPOS>ATOM
      1 C1         -0.0167    1.3794    0.0096 C.ar      1 <0>        -0.1296
      2 C2          1.1667    2.0884    0.0021 C.ar      1 <0>        -0.0646
      3 C3          2.3848    1.4070   -0.0132 C.ar      1 <0>        -0.1103
      4 C4          2.3966    0.0113   -0.0208 C.ar      1 <0>        -0.0827
      5 C5          1.2061   -0.6856   -0.0132 C.ar      1 <0>        -0.1243
      6 C6          0.0021   -0.0041    0.0020 C.ar      1 <0>        -0.0772
      7 C7         -1.2946   -0.7719    0.0103 C.3       1 <0>        -0.0769
      8 C8         -1.7472   -1.0241   -1.4293 C.3       1 <0>        -0.1176
      9 C9         -3.0637   -1.8037   -1.4209 C.3       1 <0>        -0.1105
     10 C10        -3.5163   -2.0558   -2.8605 C.3       1 <0>        -0.1052
     11 C11        -4.7744   -2.9254   -2.8577 C.3       1 <0>        -0.0212
     12 C12        -5.3694   -2.9889   -4.2375 C.2       1 <0>        -0.3944
     13 C13        -5.0786   -2.0407   -5.2017 C.2       1 <0>         0.4864
     14 N1         -5.6378   -2.1338   -6.4160 N.2       1 <0>        -0.6224
     15 C14        -6.4587   -3.1179   -6.7143 C.2       1 <0>         0.6600
     16 N2         -6.7726   -4.0784   -5.8027 N.am      1 <0>        -0.6619
     17 C15        -6.2432   -4.0336   -4.5628 C.2       1 <0>         0.5557
     18 O1         -6.5211   -4.8899   -3.7380 O.2       1 <0>        -0.5536
     19 N3         -7.0087   -3.1764   -7.9670 N.pl3     1 <0>        -0.8229
     20 N4         -4.2125   -0.9978   -4.9328 N.pl3     1 <0>        -0.7055
     21 C16        -3.8423   -0.7187   -3.5389 C.3       1 <0>         0.1249
     22 C17         3.6569    2.1603   -0.0218 C.2       1 <0>         0.5478
     23 O2          3.6435    3.3757   -0.0155 O.2       1 <0>        -0.5561
     24 N5          4.8314    1.4994   -0.0366 N.am      1 <0>        -0.6746
     25 C18         6.0919    2.2459   -0.0451 C.3       1 <0>         0.0725
     26 H1          5.9699    3.1583   -0.6287 H         1 <0>         0.0782
     27 C19         7.1909    1.3839   -0.6698 C.3       1 <0>        -0.0812
     28 C20         6.8626    1.1271   -2.1419 C.3       1 <0>        -0.1774
     29 C21         7.9450    0.2781   -2.7573 C.2       1 <0>         0.4910
     30 O3          8.8913   -0.0876   -2.0810 O.co2     1 <0>        -0.6972
     31 O4          7.8745   -0.0430   -3.9313 O.co2     1 <0>        -0.7199
     32 C22         6.4748    2.6012    1.3685 C.2       1 <0>         0.4970
     33 O5          5.8674    2.1124    2.3058 O.co2     1 <0>        -0.6978
     34 O6          7.3921    3.3775    1.5748 O.co2     1 <0>        -0.7008
     35 H2         -0.9598    1.9054    0.0260 H         1 <0>         0.1210
     36 H3          1.1508    3.1682    0.0077 H         1 <0>         0.1326
     37 H4          3.3358   -0.5219   -0.0330 H         1 <0>         0.1284
     38 H5          1.2138   -1.7656   -0.0191 H         1 <0>         0.1231
     39 H6         -1.1489   -1.7256    0.5176 H         1 <0>         0.0713
     40 H7         -2.0557   -0.1941    0.5345 H         1 <0>         0.0701
     41 H8         -1.8929   -0.0704   -1.9367 H         1 <0>         0.0652
     42 H9         -0.9861   -1.6019   -1.9536 H         1 <0>         0.0672
     43 H10        -2.9179   -2.7573   -0.9136 H         1 <0>         0.0699
     44 H11        -3.8248   -1.2258   -0.8967 H         1 <0>         0.0656
     45 H12        -2.7218   -2.5604   -3.4103 H         1 <0>         0.0798
     46 H13        -4.5162   -3.9322   -2.5295 H         1 <0>         0.0718
     47 H14        -5.5049   -2.5007   -2.1691 H         1 <0>         0.0587
     48 H15        -6.7919   -2.4967   -8.6242 H         1 <0>         0.4279
     49 H16        -7.6151   -3.8977   -8.1973 H         1 <0>         0.4141
     50 H17        -3.8539   -0.4578   -5.6544 H         1 <0>         0.4091
     51 H18        -4.6751   -0.2381   -3.0255 H         1 <0>         0.0679
     52 H19        -2.9676   -0.0689   -3.5127 H         1 <0>         0.0938
     53 H20         4.8421    0.5294   -0.0416 H         1 <0>         0.3900
     54 H21         8.1462    1.9034   -0.5958 H         1 <0>         0.0772
     55 H22         7.2523    0.4333   -0.1400 H         1 <0>         0.0565
     56 H23         5.9072    0.6076   -2.2159 H         1 <0>         0.0504
     57 H24         6.8012    2.0777   -2.6717 H         1 <0>         0.0525
     58 H25        -7.3782   -4.7964   -6.0449 H         1 <0>         0.4081
@<TRIPOS>BOND
     1    1    6 ar
     2    1    2 ar
     3    1   35 1
     4    2    3 ar
     5    2   36 1
     6    3    4 ar
     7    3   22 1
     8    4    5 ar
     9    4   37 1
    10    5    6 ar
    11    5   38 1
    12    6    7 1
    13    7    8 1
    14    7   39 1
    15    7   40 1
    16    8    9 1
    17    8   41 1
    18    8   42 1
    19    9   10 1
    20    9   43 1
    21    9   44 1
    22   10   21 1
    23   10   11 1
    24   10   45 1
    25   11   12 1
    26   11   46 1
    27   11   47 1
    28   12   17 1
    29   12   13 2
    30   13   14 1
    31   13   20 1
    32   14   15 2
    33   15   16 1
    34   15   19 1
    35   16   17 am
    36   16   58 1
    37   17   18 2
    38   19   48 1
    39   19   49 1
    40   20   21 1
    41   20   50 1
    42   21   51 1
    43   21   52 1
    44   22   23 2
    45   22   24 am
    46   24   25 1
    47   24   53 1
    48   25   26 1
    49   25   27 1
    50   25   32 1
    51   27   28 1
    52   27   54 1
    53   27   55 1
    54   28   29 1
    55   28   56 1
    56   28   57 1
    57   29   30 2
    58   29   31 1
    59   32   33 2
    60   32   34 1
@<TRIPOS>MOLECULE
CHEMBL117353__3
   58    60     0     0     0
SMALL
USER_CHARGES

@<TRIPOS>ATOM
      1 C1         -0.0167    1.3794    0.0096 C.ar      1 <0>        -0.1299
      2 C2          1.1667    2.0884    0.0021 C.ar      1 <0>        -0.0649
      3 C3          2.3848    1.4070   -0.0132 C.ar      1 <0>        -0.1099
      4 C4          2.3966    0.0113   -0.0208 C.ar      1 <0>        -0.0826
      5 C5          1.2061   -0.6856   -0.0132 C.ar      1 <0>        -0.1241
      6 C6          0.0021   -0.0041    0.0020 C.ar      1 <0>        -0.0776
      7 C7         -1.2946   -0.7719    0.0103 C.3       1 <0>        -0.0773
      8 C8         -1.7472   -1.0241   -1.4293 C.3       1 <0>        -0.1172
      9 C9         -3.0637   -1.8037   -1.4209 C.3       1 <0>        -0.1112
     10 C10        -3.5163   -2.0558   -2.8605 C.3       1 <0>        -0.1076
     11 C11        -4.7761   -2.9230   -2.8581 C.3       1 <0>        -0.0295
     12 C12        -5.3765   -2.9790   -4.2361 C.2       1 <0>        -0.3482
     13 C13        -5.0949   -2.0437   -5.1826 C.2       1 <0>         0.4482
     14 N1         -5.6806   -2.1440   -6.4190 N.pl3     1 <0>        -0.6542
     15 C14        -6.5292   -3.1720   -6.6933 C.2       1 <0>         0.6594
     16 N2         -6.8061   -4.0852   -5.7875 N.2       1 <0>        -0.6364
     17 C15        -6.2597   -4.0306   -4.5630 C.2       1 <0>         0.5455
     18 O1         -6.5268   -4.8879   -3.7332 O.2       1 <0>        -0.5321
     19 N3         -7.1052   -3.2571   -7.9331 N.pl3     1 <0>        -0.8247
     20 N4         -4.2307   -1.0037   -4.9274 N.pl3     1 <0>        -0.7306
     21 C16        -3.8425   -0.7186   -3.5395 C.3       1 <0>         0.1301
     22 C17         3.6569    2.1603   -0.0218 C.2       1 <0>         0.5476
     23 O2          3.6435    3.3757   -0.0155 O.2       1 <0>        -0.5561
     24 N5          4.8314    1.4994   -0.0366 N.am      1 <0>        -0.6744
     25 C18         6.0919    2.2459   -0.0451 C.3       1 <0>         0.0725
     26 H1          5.9699    3.1583   -0.6287 H         1 <0>         0.0782
     27 C19         7.1909    1.3839   -0.6698 C.3       1 <0>        -0.0813
     28 C20         6.8626    1.1271   -2.1419 C.3       1 <0>        -0.1772
     29 C21         7.9450    0.2781   -2.7573 C.2       1 <0>         0.4909
     30 O3          8.8913   -0.0876   -2.0810 O.co2     1 <0>        -0.6968
     31 O4          7.8745   -0.0430   -3.9313 O.co2     1 <0>        -0.7201
     32 C22         6.4748    2.6012    1.3685 C.2       1 <0>         0.4970
     33 O5          5.8674    2.1124    2.3058 O.co2     1 <0>        -0.6976
     34 O6          7.3921    3.3775    1.5748 O.co2     1 <0>        -0.7006
     35 H2         -0.9598    1.9054    0.0260 H         1 <0>         0.1208
     36 H3          1.1508    3.1682    0.0077 H         1 <0>         0.1326
     37 H4          3.3358   -0.5219   -0.0330 H         1 <0>         0.1287
     38 H5          1.2138   -1.7656   -0.0191 H         1 <0>         0.1234
     39 H6         -1.1489   -1.7256    0.5176 H         1 <0>         0.0720
     40 H7         -2.0557   -0.1941    0.5345 H         1 <0>         0.0704
     41 H8         -1.8929   -0.0704   -1.9367 H         1 <0>         0.0641
     42 H9         -0.9861   -1.6019   -1.9536 H         1 <0>         0.0673
     43 H10        -2.9179   -2.7573   -0.9136 H         1 <0>         0.0721
     44 H11        -3.8248   -1.2258   -0.8967 H         1 <0>         0.0665
     45 H12        -2.7223   -2.5612   -3.4104 H         1 <0>         0.0810
     46 H13        -4.5187   -3.9319   -2.5356 H         1 <0>         0.0801
     47 H14        -5.5034   -2.5004   -2.1648 H         1 <0>         0.0657
     48 H15        -6.9070   -2.5881   -8.6069 H         1 <0>         0.4096
     49 H16        -7.7113   -3.9864   -8.1372 H         1 <0>         0.4304
     50 H17        -3.8819   -0.4655   -5.6552 H         1 <0>         0.4039
     51 H18        -4.6664   -0.2311   -3.0183 H         1 <0>         0.0707
     52 H19        -2.9636   -0.0740   -3.5270 H         1 <0>         0.0964
     53 H20         4.8421    0.5294   -0.0416 H         1 <0>         0.3901
     54 H21         8.1462    1.9034   -0.5958 H         1 <0>         0.0774
     55 H22         7.2523    0.4333   -0.1400 H         1 <0>         0.0567
     56 H23         5.9072    0.6076   -2.2159 H         1 <0>         0.0501
     57 H24         6.8012    2.0777   -2.6717 H         1 <0>         0.0524
     58 H25        -5.4895   -1.4800   -7.0998 H         1 <0>         0.4108
@<TRIPOS>BOND
     1    1    6 ar
     2    1    2 ar
     3    1   35 1
     4    2    3 ar
     5    2   36 1
     6    3    4 ar
     7    3   22 1
     8    4    5 ar
     9    4   37 1
    10    5    6 ar
    11    5   38 1
    12    6    7 1
    13    7    8 1
    14    7   39 1
    15    7   40 1
    16    8    9 1
    17    8   41 1
    18    8   42 1
    19    9   10 1
    20    9   43 1
    21    9   44 1
    22   10   21 1
    23   10   11 1
    24   10   45 1
    25   11   12 1
    26   11   46 1
    27   11   47 1
    28   12   17 1
    29   12   13 2
    30   13   14 1
    31   13   20 1
    32   14   15 1
    33   14   58 1
    34   15   16 2
    35   15   19 1
    36   16   17 1
    37   17   18 2
    38   19   48 1
    39   19   49 1
    40   20   21 1
    41   20   50 1
    42   21   51 1
    43   21   52 1
    44   22   23 2
    45   22   24 am
    46   24   25 1
    47   24   53 1
    48   25   26 1
    49   25   27 1
    50   25   32 1
    51   27   28 1
    52   27   54 1
    53   27   55 1
    54   28   29 1
    55   28   56 1
    56   28   57 1
    57   29   30 2
    58   29   31 1
    59   32   33 2
    60   32   34 1
@<TRIPOS>MOLECULE
CHEMBL84935
   52    53     0     0     0
SMALL
USER_CHARGES

@<TRIPOS>ATOM
      1 C1          0.0282    1.8197   -0.4143 C.3       1 <0>        -0.0970
      2 C2         -0.0469    0.3148   -0.3867 C.2       1 <0>        -0.0624
      3 C3          0.0031   -0.4406   -1.5336 C.2       1 <0>        -0.1721
      4 C4         -0.0692   -1.7912   -1.4369 C.2       1 <0>        -0.2165
      5 S1         -0.2073   -2.0792    0.2124 S.3       1 <0>         0.2031
      6 C5         -0.1649   -0.3960    0.7980 C.2       1 <0>        -0.2139
      7 C6         -0.2378    0.1059    2.1733 C.2       1 <0>         0.5967
      8 O1         -0.1951    1.3033    2.3872 O.2       1 <0>        -0.5402
      9 N1         -0.3521   -0.7585    3.2010 N.am      1 <0>        -0.6742
     10 C7         -0.4250   -0.2569    4.5755 C.3       1 <0>         0.0735
     11 H1         -0.9721    0.6857    4.5897 H         1 <0>         0.0796
     12 C8         -1.1483   -1.2797    5.4540 C.3       1 <0>        -0.0809
     13 C9         -2.6014   -1.4106    4.9933 C.3       1 <0>        -0.1785
     14 C10        -3.3138   -2.4180    5.8586 C.2       1 <0>         0.4914
     15 O2         -2.7148   -2.9792    6.7601 O.co2     1 <0>        -0.6968
     16 O3         -4.4891   -2.6719    5.6571 O.co2     1 <0>        -0.7203
     17 C11         0.9689   -0.0368    5.1045 C.2       1 <0>         0.4960
     18 O4          1.9337   -0.2767    4.3987 O.co2     1 <0>        -0.6953
     19 O5          1.1317    0.3812    6.2382 O.co2     1 <0>        -0.6994
     20 C12        -0.0343   -2.8025   -2.5537 C.3       1 <0>        -0.0225
     21 C13         1.4144   -3.2140   -2.8239 C.3       1 <0>        -0.0993
     22 C14         1.4498   -4.2407   -3.9577 C.3       1 <0>        -0.1033
     23 S2          3.1674   -4.7286   -4.2781 S.3       1 <0>        -0.0907
     24 C15         3.0312   -5.9901   -5.5007 C.2       1 <0>        -0.4289
     25 C16         3.5343   -5.7937   -6.7814 C.2       1 <0>         0.5300
     26 N2          3.4200   -6.7655   -7.6950 N.2       1 <0>        -0.6256
     27 C17         2.8384   -7.9089   -7.4048 C.2       1 <0>         0.6772
     28 N3          2.3286   -8.1523   -6.1665 N.am      1 <0>        -0.6601
     29 C18         2.4181   -7.2149   -5.1999 C.2       1 <0>         0.5632
     30 O6          1.9685   -7.4275   -4.0841 O.2       1 <0>        -0.5245
     31 N4          2.7430   -8.8776   -8.3719 N.pl3     1 <0>        -0.8184
     32 N5          4.1503   -4.5984   -7.1108 N.pl3     1 <0>        -0.8151
     33 H2          1.0702    2.1328   -0.3488 H         1 <0>         0.0689
     34 H3         -0.4041    2.1880   -1.3447 H         1 <0>         0.0545
     35 H4         -0.5273    2.2268    0.4306 H         1 <0>         0.0894
     36 H5          0.0983    0.0349   -2.4986 H         1 <0>         0.1268
     37 H6         -0.3861   -1.7128    3.0305 H         1 <0>         0.3889
     38 H7         -0.6519   -2.2464    5.3699 H         1 <0>         0.0559
     39 H8         -1.1247   -0.9482    6.4921 H         1 <0>         0.0802
     40 H9         -3.0977   -0.4439    5.0774 H         1 <0>         0.0524
     41 H10        -2.6250   -1.7421    3.9552 H         1 <0>         0.0502
     42 H11        -0.6139   -3.6801   -2.2673 H         1 <0>         0.0791
     43 H12        -0.4614   -2.3632   -3.4552 H         1 <0>         0.0804
     44 H13         1.9940   -2.3364   -3.1102 H         1 <0>         0.0737
     45 H14         1.8415   -3.6533   -1.9224 H         1 <0>         0.0795
     46 H15         0.8702   -5.1183   -3.6714 H         1 <0>         0.0867
     47 H16         1.0227   -3.8015   -4.8592 H         1 <0>         0.0729
     48 H17         3.1024   -8.7152   -9.2581 H         1 <0>         0.4286
     49 H18         2.3161   -9.7247   -8.1693 H         1 <0>         0.4169
     50 H19         4.3067   -3.9288   -6.4267 H         1 <0>         0.4239
     51 H20         4.4254   -4.4306   -8.0257 H         1 <0>         0.4049
     52 H21         1.9037   -9.0034   -5.9771 H         1 <0>         0.4116
@<TRIPOS>BOND
     1    1    2 1
     2    1   33 1
     3    1   34 1
     4    1   35 1
     5    2    6 2
     6    2    3 1
     7    3    4 2
     8    3   36 1
     9    4    5 1
    10    4   20 1
    11    5    6 1
    12    6    7 1
    13    7    8 2
    14    7    9 am
    15    9   10 1
    16    9   37 1
    17   10   11 1
    18   10   12 1
    19   10   17 1
    20   12   13 1
    21   12   38 1
    22   12   39 1
    23   13   14 1
    24   13   40 1
    25   13   41 1
    26   14   15 2
    27   14   16 1
    28   17   18 2
    29   17   19 1
    30   20   21 1
    31   20   42 1
    32   20   43 1
    33   21   22 1
    34   21   44 1
    35   21   45 1
    36   22   23 1
    37   22   46 1
    38   22   47 1
    39   23   24 1
    40   24   29 1
    41   24   25 2
    42   25   26 1
    43   25   32 1
    44   26   27 2
    45   27   28 1
    46   27   31 1
    47   28   29 am
    48   28   52 1
    49   29   30 2
    50   31   48 1
    51   31   49 1
    52   32   50 1
    53   32   51 1
@<TRIPOS>MOLECULE
CHEMBL279508
   55    57     0     0     0
SMALL
USER_CHARGES

@<TRIPOS>ATOM
      1 C1         -0.0169    1.3937    0.0097 C.ar      1 <0>        -0.0174
      2 C2          1.1662    2.0965    0.0022 C.ar      1 <0>        -0.2070
      3 C3          2.3811    1.4169   -0.0131 C.ar      1 <0>         0.2250
      4 C4          2.4034    0.0249   -0.0208 C.ar      1 <0>        -0.2038
      5 C5          1.2237   -0.6836   -0.0138 C.ar      1 <0>        -0.0362
      6 C6          0.0021   -0.0041    0.0020 C.ar      1 <0>        -0.1681
      7 C7         -1.2644   -0.7605    0.0105 C.2       1 <0>         0.5499
      8 O1         -2.3263   -0.1682    0.0243 O.2       1 <0>        -0.5611
      9 N1         -1.2445   -2.1081    0.0031 N.am      1 <0>        -0.6796
     10 C8         -2.5022   -2.8593    0.0116 C.3       1 <0>         0.0746
     11 C9         -2.2637   -4.2464    0.6114 C.3       1 <0>        -0.0820
     12 C10        -1.8670   -4.1047    2.0823 C.3       1 <0>        -0.1770
     13 C11        -1.6321   -5.4710    2.6731 C.2       1 <0>         0.4912
     14 O2         -1.7693   -6.4659    1.9818 O.co2     1 <0>        -0.6982
     15 O3         -1.3049   -5.5815    3.8424 O.co2     1 <0>        -0.7202
     16 C12        -3.0110   -3.0030   -1.3996 C.2       1 <0>         0.4984
     17 O4         -2.2242   -3.0459   -2.3300 O.co2     1 <0>        -0.6992
     18 O5         -4.2095   -3.0763   -1.6111 O.co2     1 <0>        -0.7031
     19 N2          3.5749    2.1299   -0.0211 N.pl3     1 <0>        -0.7458
     20 C13         4.8542    1.4162   -0.0371 C.3       1 <0>         0.1300
     21 C14         6.0023    2.4276   -0.0432 C.3       1 <0>        -0.0977
     22 C15         7.3412    1.6888   -0.1572 C.3       1 <0>        -0.1124
     23 C16         8.4431    2.7216   -0.3859 C.3       1 <0>        -0.0682
     24 C17         8.3626    3.8190    0.6425 C.2       1 <0>         0.2237
     25 C18         7.2484    4.0479    1.3837 C.2       1 <0>        -0.2899
     26 C19         7.2561    5.1064    2.3173 C.2       1 <0>         0.5420
     27 N3          8.3702    5.8530    2.4536 N.am      1 <0>        -0.6548
     28 C20         9.4610    5.5740    1.6897 C.2       1 <0>         0.6323
     29 N4          9.4431    4.5894    0.8179 N.2       1 <0>        -0.5972
     30 N5         10.5938    6.3296    1.8303 N.pl3     1 <0>        -0.8240
     31 O6          6.2673    5.3429    2.9917 O.2       1 <0>        -0.5310
     32 C21         5.9996    3.2175    1.2645 C.3       1 <0>        -0.0390
     33 H1         -0.9590    1.9215    0.0260 H         1 <0>         0.1320
     34 H2          1.1522    3.1764    0.0078 H         1 <0>         0.1190
     35 H3          3.3474   -0.4995   -0.0326 H         1 <0>         0.1221
     36 H4          1.2416   -1.7634   -0.0204 H         1 <0>         0.1277
     37 H5         -0.3974   -2.5806   -0.0078 H         1 <0>         0.3901
     38 H6         -3.2399   -2.3261    0.6112 H         1 <0>         0.0767
     39 H7         -3.1771   -4.8365    0.5367 H         1 <0>         0.0713
     40 H8         -1.4631   -4.7456    0.0656 H         1 <0>         0.0596
     41 H9         -0.9536   -3.5146    2.1570 H         1 <0>         0.0518
     42 H10        -2.6677   -3.6056    2.6281 H         1 <0>         0.0524
     43 H11         3.5606    3.0997   -0.0161 H         1 <0>         0.3968
     44 H12         4.9299    0.7860    0.8490 H         1 <0>         0.0631
     45 H13         4.9126    0.7950   -0.9309 H         1 <0>         0.0641
     46 H14         5.8859    3.1102   -0.8850 H         1 <0>         0.0804
     47 H15         7.5375    1.1404    0.7641 H         1 <0>         0.0737
     48 H16         7.3076    0.9955   -0.9977 H         1 <0>         0.0816
     49 H17         9.4146    2.2325   -0.3142 H         1 <0>         0.0911
     50 H18         8.3305    3.1529   -1.3806 H         1 <0>         0.0910
     51 H19        10.6147    7.0577    2.4709 H         1 <0>         0.4129
     52 H20        11.3755    6.1370    1.2893 H         1 <0>         0.4279
     53 H21         8.3942    6.5832    3.0916 H         1 <0>         0.4103
     54 H22         5.1289    3.8729    1.2867 H         1 <0>         0.0756
     55 H23         5.9477    2.5235    2.1034 H         1 <0>         0.0743
@<TRIPOS>BOND
     1    1    6 ar
     2    1    2 ar
     3    1   33 1
     4    2    3 ar
     5    2   34 1
     6    3    4 ar
     7    3   19 1
     8    4    5 ar
     9    4   35 1
    10    5    6 ar
    11    5   36 1
    12    6    7 1
    13    7    8 2
    14    7    9 am
    15    9   10 1
    16    9   37 1
    17   10   11 1
    18   10   16 1
    19   10   38 1
    20   11   12 1
    21   11   39 1
    22   11   40 1
    23   12   13 1
    24   12   41 1
    25   12   42 1
    26   13   14 2
    27   13   15 1
    28   16   17 2
    29   16   18 1
    30   19   20 1
    31   19   43 1
    32   20   21 1
    33   20   44 1
    34   20   45 1
    35   21   32 1
    36   21   22 1
    37   21   46 1
    38   22   23 1
    39   22   47 1
    40   22   48 1
    41   23   49 1
    42   23   50 1
    43   23   24 1
    44   24   29 1
    45   24   25 2
    46   25   26 1
    47   25   32 1
    48   26   31 2
    49   26   27 am
    50   27   53 1
    51   27   28 1
    52   28   30 1
    53   28   29 2
    54   30   51 1
    55   30   52 1
    56   32   54 1
    57   32   55 1
@<TRIPOS>MOLECULE
CHEMBL279508__1
   55    57     0     0     0
SMALL
USER_CHARGES

@<TRIPOS>ATOM
      1 C1         -0.0169    1.3937    0.0097 C.ar      1 <0>        -0.0174
      2 C2          1.1662    2.0965    0.0022 C.ar      1 <0>        -0.2070
      3 C3          2.3811    1.4169   -0.0131 C.ar      1 <0>         0.2250
      4 C4          2.4034    0.0249   -0.0208 C.ar      1 <0>        -0.2038
      5 C5          1.2237   -0.6836   -0.0138 C.ar      1 <0>        -0.0362
      6 C6          0.0021   -0.0041    0.0020 C.ar      1 <0>        -0.1681
      7 C7         -1.2644   -0.7605    0.0105 C.2       1 <0>         0.5499
      8 O1         -2.3263   -0.1682    0.0243 O.2       1 <0>        -0.5611
      9 N1         -1.2445   -2.1081    0.0031 N.am      1 <0>        -0.6796
     10 C8         -2.5022   -2.8593    0.0116 C.3       1 <0>         0.0746
     11 C9         -2.2637   -4.2464    0.6114 C.3       1 <0>        -0.0821
     12 C10        -1.8670   -4.1047    2.0823 C.3       1 <0>        -0.1769
     13 C11        -1.6321   -5.4710    2.6731 C.2       1 <0>         0.4912
     14 O2         -1.7693   -6.4659    1.9818 O.co2     1 <0>        -0.6981
     15 O3         -1.3049   -5.5815    3.8424 O.co2     1 <0>        -0.7203
     16 C12        -3.0110   -3.0030   -1.3996 C.2       1 <0>         0.4982
     17 O4         -2.2242   -3.0459   -2.3300 O.co2     1 <0>        -0.6990
     18 O5         -4.2095   -3.0763   -1.6111 O.co2     1 <0>        -0.7031
     19 N2          3.5749    2.1299   -0.0211 N.pl3     1 <0>        -0.7459
     20 C13         4.8542    1.4162   -0.0371 C.3       1 <0>         0.1300
     21 C14         6.0023    2.4276   -0.0432 C.3       1 <0>        -0.0977
     22 C15         7.3431    1.6878    0.0372 C.3       1 <0>        -0.1124
     23 C16         8.4493    2.7183    0.2548 C.3       1 <0>        -0.0682
     24 C17         8.3489    3.8261   -0.7607 C.2       1 <0>         0.2238
     25 C18         7.2206    4.0623   -1.4778 C.2       1 <0>        -0.2900
     26 C19         7.2102    5.1302   -2.4006 C.2       1 <0>         0.5419
     27 N3          8.3215    5.8782   -2.5511 N.am      1 <0>        -0.6549
     28 C20         9.4269    5.5916   -1.8114 C.2       1 <0>         0.6323
     29 N4          9.4259    4.5983   -0.9494 N.2       1 <0>        -0.5972
     30 N5         10.5572    6.3481   -1.9671 N.pl3     1 <0>        -0.8240
     31 O6          6.2087    5.3729   -3.0538 O.2       1 <0>        -0.5310
     32 C21         5.9742    3.2306   -1.3426 C.3       1 <0>        -0.0389
     33 H1         -0.9590    1.9215    0.0260 H         1 <0>         0.1319
     34 H2          1.1522    3.1764    0.0078 H         1 <0>         0.1190
     35 H3          3.3474   -0.4995   -0.0326 H         1 <0>         0.1221
     36 H4          1.2416   -1.7634   -0.0204 H         1 <0>         0.1277
     37 H5         -0.3974   -2.5806   -0.0078 H         1 <0>         0.3901
     38 H6         -3.2399   -2.3261    0.6112 H         1 <0>         0.0767
     39 H7         -3.1771   -4.8365    0.5367 H         1 <0>         0.0714
     40 H8         -1.4631   -4.7456    0.0656 H         1 <0>         0.0596
     41 H9         -0.9536   -3.5146    2.1570 H         1 <0>         0.0518
     42 H10        -2.6677   -3.6056    2.6281 H         1 <0>         0.0524
     43 H11         3.5606    3.0997   -0.0161 H         1 <0>         0.3969
     44 H12         4.9299    0.7860    0.8490 H         1 <0>         0.0644
     45 H13         4.9126    0.7950   -0.9309 H         1 <0>         0.0629
     46 H14         5.9024    3.1017    0.8075 H         1 <0>         0.0805
     47 H15         7.3258    0.9861    0.8711 H         1 <0>         0.0818
     48 H16         7.5214    1.1487   -0.8932 H         1 <0>         0.0735
     49 H17         8.3566    3.1392    1.2560 H         1 <0>         0.0912
     50 H18         9.4192    2.2302    0.1586 H         1 <0>         0.0911
     51 H19        10.5659    7.0822   -2.6011 H         1 <0>         0.4129
     52 H20        11.3493    6.1501   -1.4435 H         1 <0>         0.4280
     53 H21         8.3329    6.6152   -3.1816 H         1 <0>         0.4103
     54 H22         5.9059    2.5452   -2.1874 H         1 <0>         0.0741
     55 H23         5.1033    3.8861   -1.3412 H         1 <0>         0.0756
@<TRIPOS>BOND
     1    1    6 ar
     2    1    2 ar
     3    1   33 1
     4    2    3 ar
     5    2   34 1
     6    3    4 ar
     7    3   19 1
     8    4    5 ar
     9    4   35 1
    10    5    6 ar
    11    5   36 1
    12    6    7 1
    13    7    8 2
    14    7    9 am
    15    9   10 1
    16    9   37 1
    17   10   11 1
    18   10   16 1
    19   10   38 1
    20   11   12 1
    21   11   39 1
    22   11   40 1
    23   12   13 1
    24   12   41 1
    25   12   42 1
    26   13   14 2
    27   13   15 1
    28   16   17 2
    29   16   18 1
    30   19   20 1
    31   19   43 1
    32   20   21 1
    33   20   44 1
    34   20   45 1
    35   21   32 1
    36   21   22 1
    37   21   46 1
    38   22   23 1
    39   22   47 1
    40   22   48 1
    41   23   49 1
    42   23   50 1
    43   23   24 1
    44   24   29 1
    45   24   25 2
    46   25   26 1
    47   25   32 1
    48   26   31 2
    49   26   27 am
    50   27   53 1
    51   27   28 1
    52   28   30 1
    53   28   29 2
    54   30   51 1
    55   30   52 1
    56   32   54 1
    57   32   55 1
@<TRIPOS>MOLECULE
CHEMBL279508__2
   55    57     0     0     0
SMALL
USER_CHARGES

@<TRIPOS>ATOM
      1 C1         -0.0169    1.3937    0.0097 C.ar      1 <0>        -0.0178
      2 C2          1.1662    2.0965    0.0022 C.ar      1 <0>        -0.2067
      3 C3          2.3811    1.4169   -0.0131 C.ar      1 <0>         0.2240
      4 C4          2.4034    0.0249   -0.0208 C.ar      1 <0>        -0.2038
      5 C5          1.2237   -0.6836   -0.0138 C.ar      1 <0>        -0.0372
      6 C6          0.0021   -0.0041    0.0020 C.ar      1 <0>        -0.1654
      7 C7         -1.2644   -0.7605    0.0105 C.2       1 <0>         0.5568
      8 O1         -2.3263   -0.1682    0.0243 O.2       1 <0>        -0.5625
      9 N1         -1.2445   -2.1081    0.0031 N.am      1 <0>        -0.6800
     10 C8         -2.5022   -2.8593    0.0116 C.3       1 <0>         0.0735
     11 C9         -2.2758   -4.2399   -0.6078 C.3       1 <0>        -0.0800
     12 C10        -1.9084   -4.0824   -2.0846 C.3       1 <0>        -0.1775
     13 C11        -1.6854   -5.4422   -2.6946 C.2       1 <0>         0.4910
     14 O2         -1.8089   -6.4445   -2.0115 O.co2     1 <0>        -0.6976
     15 O3         -1.3815   -5.5401   -3.8713 O.co2     1 <0>        -0.7211
     16 C12        -2.9829   -3.0182    1.4310 C.2       1 <0>         0.4953
     17 O4         -2.3350   -2.5475    2.3503 O.co2     1 <0>        -0.6967
     18 O5         -4.0198   -3.6173    1.6600 O.co2     1 <0>        -0.7023
     19 N2          3.5749    2.1299   -0.0211 N.pl3     1 <0>        -0.7462
     20 C13         4.8542    1.4162   -0.0371 C.3       1 <0>         0.1303
     21 C14         6.0023    2.4276   -0.0432 C.3       1 <0>        -0.0977
     22 C15         7.3412    1.6888   -0.1572 C.3       1 <0>        -0.1124
     23 C16         8.4431    2.7216   -0.3859 C.3       1 <0>        -0.0682
     24 C17         8.3626    3.8190    0.6425 C.2       1 <0>         0.2237
     25 C18         7.2484    4.0479    1.3837 C.2       1 <0>        -0.2899
     26 C19         7.2561    5.1064    2.3173 C.2       1 <0>         0.5419
     27 N3          8.3702    5.8530    2.4536 N.am      1 <0>        -0.6549
     28 C20         9.4610    5.5740    1.6897 C.2       1 <0>         0.6322
     29 N4          9.4431    4.5894    0.8179 N.2       1 <0>        -0.5972
     30 N5         10.5938    6.3296    1.8303 N.pl3     1 <0>        -0.8241
     31 O6          6.2673    5.3429    2.9917 O.2       1 <0>        -0.5309
     32 C21         5.9996    3.2175    1.2645 C.3       1 <0>        -0.0390
     33 H1         -0.9590    1.9215    0.0260 H         1 <0>         0.1317
     34 H2          1.1522    3.1764    0.0078 H         1 <0>         0.1186
     35 H3          3.3474   -0.4995   -0.0326 H         1 <0>         0.1216
     36 H4          1.2416   -1.7634   -0.0204 H         1 <0>         0.1267
     37 H5         -0.3974   -2.5806   -0.0078 H         1 <0>         0.3879
     38 H6         -3.2516   -2.3197   -0.5676 H         1 <0>         0.0768
     39 H7         -1.4645   -4.7448   -0.0833 H         1 <0>         0.0543
     40 H8         -3.1876   -4.8309   -0.5212 H         1 <0>         0.0779
     41 H9         -2.7197   -3.5775   -2.6090 H         1 <0>         0.0519
     42 H10        -0.9966   -3.4914   -2.1711 H         1 <0>         0.0507
     43 H11         3.5606    3.0997   -0.0161 H         1 <0>         0.3967
     44 H12         4.9299    0.7860    0.8490 H         1 <0>         0.0626
     45 H13         4.9126    0.7950   -0.9309 H         1 <0>         0.0641
     46 H14         5.8859    3.1102   -0.8850 H         1 <0>         0.0804
     47 H15         7.5375    1.1404    0.7641 H         1 <0>         0.0734
     48 H16         7.3076    0.9955   -0.9977 H         1 <0>         0.0818
     49 H17         9.4146    2.2325   -0.3142 H         1 <0>         0.0910
     50 H18         8.3305    3.1529   -1.3806 H         1 <0>         0.0911
     51 H19        10.6147    7.0577    2.4709 H         1 <0>         0.4129
     52 H20        11.3755    6.1370    1.2893 H         1 <0>         0.4279
     53 H21         8.3942    6.5832    3.0916 H         1 <0>         0.4103
     54 H22         5.1289    3.8729    1.2867 H         1 <0>         0.0757
     55 H23         5.9477    2.5235    2.1034 H         1 <0>         0.0741
@<TRIPOS>BOND
     1    1    6 ar
     2    1    2 ar
     3    1   33 1
     4    2    3 ar
     5    2   34 1
     6    3    4 ar
     7    3   19 1
     8    4    5 ar
     9    4   35 1
    10    5    6 ar
    11    5   36 1
    12    6    7 1
    13    7    8 2
    14    7    9 am
    15    9   10 1
    16    9   37 1
    17   10   11 1
    18   10   16 1
    19   10   38 1
    20   11   12 1
    21   11   39 1
    22   11   40 1
    23   12   13 1
    24   12   41 1
    25   12   42 1
    26   13   14 2
    27   13   15 1
    28   16   17 2
    29   16   18 1
    30   19   20 1
    31   19   43 1
    32   20   21 1
    33   20   44 1
    34   20   45 1
    35   21   32 1
    36   21   22 1
    37   21   46 1
    38   22   23 1
    39   22   47 1
    40   22   48 1
    41   23   49 1
    42   23   50 1
    43   23   24 1
    44   24   29 1
    45   24   25 2
    46   25   26 1
    47   25   32 1
    48   26   31 2
    49   26   27 am
    50   27   53 1
    51   27   28 1
    52   28   30 1
    53   28   29 2
    54   30   51 1
    55   30   52 1
    56   32   54 1
    57   32   55 1
@<TRIPOS>MOLECULE
CHEMBL279508__3
   55    57     0     0     0
SMALL
USER_CHARGES

@<TRIPOS>ATOM
      1 C1         -0.0169    1.3937    0.0097 C.ar      1 <0>        -0.0178
      2 C2          1.1662    2.0965    0.0022 C.ar      1 <0>        -0.2067
      3 C3          2.3811    1.4169   -0.0131 C.ar      1 <0>         0.2239
      4 C4          2.4034    0.0249   -0.0208 C.ar      1 <0>        -0.2038
      5 C5          1.2237   -0.6836   -0.0138 C.ar      1 <0>        -0.0373
      6 C6          0.0021   -0.0041    0.0020 C.ar      1 <0>        -0.1653
      7 C7         -1.2644   -0.7605    0.0105 C.2       1 <0>         0.5568
      8 O1         -2.3263   -0.1682    0.0243 O.2       1 <0>        -0.5625
      9 N1         -1.2445   -2.1081    0.0031 N.am      1 <0>        -0.6800
     10 C8         -2.5022   -2.8593    0.0116 C.3       1 <0>         0.0734
     11 C9         -2.2758   -4.2399   -0.6078 C.3       1 <0>        -0.0799
     12 C10        -1.9084   -4.0824   -2.0846 C.3       1 <0>        -0.1777
     13 C11        -1.6854   -5.4422   -2.6946 C.2       1 <0>         0.4910
     14 O2         -1.8089   -6.4445   -2.0115 O.co2     1 <0>        -0.6977
     15 O3         -1.3815   -5.5401   -3.8713 O.co2     1 <0>        -0.7209
     16 C12        -2.9829   -3.0182    1.4310 C.2       1 <0>         0.4955
     17 O4         -2.3350   -2.5475    2.3503 O.co2     1 <0>        -0.6969
     18 O5         -4.0198   -3.6173    1.6600 O.co2     1 <0>        -0.7022
     19 N2          3.5749    2.1299   -0.0211 N.pl3     1 <0>        -0.7462
     20 C13         4.8542    1.4162   -0.0371 C.3       1 <0>         0.1303
     21 C14         6.0023    2.4276   -0.0432 C.3       1 <0>        -0.0976
     22 C15         7.3431    1.6878    0.0372 C.3       1 <0>        -0.1124
     23 C16         8.4493    2.7183    0.2548 C.3       1 <0>        -0.0681
     24 C17         8.3489    3.8261   -0.7607 C.2       1 <0>         0.2236
     25 C18         7.2206    4.0623   -1.4778 C.2       1 <0>        -0.2897
     26 C19         7.2102    5.1302   -2.4006 C.2       1 <0>         0.5420
     27 N3          8.3215    5.8782   -2.5511 N.am      1 <0>        -0.6548
     28 C20         9.4269    5.5916   -1.8114 C.2       1 <0>         0.6323
     29 N4          9.4259    4.5983   -0.9494 N.2       1 <0>        -0.5972
     30 N5         10.5572    6.3481   -1.9671 N.pl3     1 <0>        -0.8241
     31 O6          6.2087    5.3729   -3.0538 O.2       1 <0>        -0.5310
     32 C21         5.9742    3.2306   -1.3426 C.3       1 <0>        -0.0390
     33 H1         -0.9590    1.9215    0.0260 H         1 <0>         0.1317
     34 H2          1.1522    3.1764    0.0078 H         1 <0>         0.1186
     35 H3          3.3474   -0.4995   -0.0326 H         1 <0>         0.1215
     36 H4          1.2416   -1.7634   -0.0204 H         1 <0>         0.1267
     37 H5         -0.3974   -2.5806   -0.0078 H         1 <0>         0.3879
     38 H6         -3.2516   -2.3197   -0.5676 H         1 <0>         0.0767
     39 H7         -1.4645   -4.7448   -0.0833 H         1 <0>         0.0543
     40 H8         -3.1876   -4.8309   -0.5212 H         1 <0>         0.0779
     41 H9         -2.7197   -3.5775   -2.6090 H         1 <0>         0.0519
     42 H10        -0.9966   -3.4914   -2.1711 H         1 <0>         0.0508
     43 H11         3.5606    3.0997   -0.0161 H         1 <0>         0.3967
     44 H12         4.9299    0.7860    0.8490 H         1 <0>         0.0638
     45 H13         4.9126    0.7950   -0.9309 H         1 <0>         0.0629
     46 H14         5.9024    3.1017    0.8075 H         1 <0>         0.0804
     47 H15         7.3258    0.9861    0.8711 H         1 <0>         0.0816
     48 H16         7.5214    1.1487   -0.8932 H         1 <0>         0.0736
     49 H17         8.3566    3.1392    1.2560 H         1 <0>         0.0910
     50 H18         9.4192    2.2302    0.1586 H         1 <0>         0.0910
     51 H19        10.5659    7.0822   -2.6011 H         1 <0>         0.4129
     52 H20        11.3493    6.1501   -1.4435 H         1 <0>         0.4279
     53 H21         8.3329    6.6152   -3.1816 H         1 <0>         0.4103
     54 H22         5.9059    2.5452   -2.1874 H         1 <0>         0.0743
     55 H23         5.1033    3.8861   -1.3412 H         1 <0>         0.0757
@<TRIPOS>BOND
     1    1    6 ar
     2    1    2 ar
     3    1   33 1
     4    2    3 ar
     5    2   34 1
     6    3    4 ar
     7    3   19 1
     8    4    5 ar
     9    4   35 1
    10    5    6 ar
    11    5   36 1
    12    6    7 1
    13    7    8 2
    14    7    9 am
    15    9   10 1
    16    9   37 1
    17   10   11 1
    18   10   16 1
    19   10   38 1
    20   11   12 1
    21   11   39 1
    22   11   40 1
    23   12   13 1
    24   12   41 1
    25   12   42 1
    26   13   14 2
    27   13   15 1
    28   16   17 2
    29   16   18 1
    30   19   20 1
    31   19   43 1
    32   20   21 1
    33   20   44 1
    34   20   45 1
    35   21   32 1
    36   21   22 1
    37   21   46 1
    38   22   23 1
    39   22   47 1
    40   22   48 1
    41   23   49 1
    42   23   50 1
    43   23   24 1
    44   24   29 1
    45   24   25 2
    46   25   26 1
    47   25   32 1
    48   26   31 2
    49   26   27 am
    50   27   53 1
    51   27   28 1
    52   28   30 1
    53   28   29 2
    54   30   51 1
    55   30   52 1
    56   32   54 1
    57   32   55 1
@<TRIPOS>MOLECULE
CHEMBL526928
   62    64     0     0     0
SMALL
USER_CHARGES

@<TRIPOS>ATOM
      1 C1         -0.0167    1.3794    0.0096 C.ar      1 <0>        -0.1295
      2 C2          1.1667    2.0884    0.0021 C.ar      1 <0>        -0.0645
      3 C3          2.3848    1.4070   -0.0132 C.ar      1 <0>        -0.1096
      4 C4          2.3966    0.0113   -0.0208 C.ar      1 <0>        -0.0831
      5 C5          1.2061   -0.6856   -0.0132 C.ar      1 <0>        -0.1245
      6 C6          0.0021   -0.0041    0.0020 C.ar      1 <0>        -0.0779
      7 C7         -1.2946   -0.7719    0.0103 C.3       1 <0>        -0.0767
      8 C8         -1.7472   -1.0241   -1.4293 C.3       1 <0>        -0.1158
      9 C9         -3.0637   -1.8037   -1.4209 C.3       1 <0>        -0.1183
     10 C10        -3.5163   -2.0558   -2.8605 C.3       1 <0>        -0.1217
     11 C11        -4.8327   -2.8354   -2.8521 C.3       1 <0>        -0.1150
     12 C12        -5.2854   -3.0875   -4.2917 C.3       1 <0>        -0.0524
     13 C13        -6.5820   -3.8554   -4.2834 C.2       1 <0>         0.0360
     14 C14        -6.6899   -5.1910   -4.1885 C.2       1 <0>        -0.1088
     15 C15        -8.1185   -5.5003   -4.2183 C.2       1 <0>        -0.3160
     16 C16        -8.7849   -4.2723   -4.3337 C.2       1 <0>         0.3435
     17 N1         -7.8325   -3.2963   -4.3657 N.pl3     1 <0>        -0.5427
     18 H1         -8.0127   -2.3459   -4.4385 H         1 <0>         0.4186
     19 N2        -10.1251   -4.2583   -4.3838 N.2       1 <0>        -0.5898
     20 C17       -10.8198   -5.3715   -4.3266 C.2       1 <0>         0.6509
     21 N3        -10.2245   -6.5930   -4.2142 N.am      1 <0>        -0.6629
     22 H2        -10.7692   -7.3947   -4.1749 H         1 <0>         0.4129
     23 C18        -8.8768   -6.6900   -4.1577 C.2       1 <0>         0.5832
     24 O1         -8.3312   -7.7754   -4.0576 O.2       1 <0>        -0.5315
     25 N4        -12.1893   -5.3029   -4.3813 N.pl3     1 <0>        -0.8249
     26 C19         3.6569    2.1603   -0.0218 C.2       1 <0>         0.5502
     27 O2          3.6435    3.3757   -0.0155 O.2       1 <0>        -0.5553
     28 N5          4.8314    1.4994   -0.0366 N.am      1 <0>        -0.6757
     29 C20         6.0919    2.2459   -0.0451 C.3       1 <0>         0.0724
     30 H3          5.9814    3.1523    0.5501 H         1 <0>         0.0780
     31 C21         7.2027    1.3778    0.5494 C.3       1 <0>        -0.0804
     32 C22         6.9032    1.1060    2.0250 C.3       1 <0>        -0.1780
     33 C23         7.9973    0.2510    2.6105 C.2       1 <0>         0.4910
     34 O3          8.9302   -0.1078    1.9123 O.co2     1 <0>        -0.6971
     35 O4          7.9496   -0.0820    3.7824 O.co2     1 <0>        -0.7202
     36 C24         6.4472    2.6155   -1.4622 C.2       1 <0>         0.4957
     37 O5          5.7154    2.2860   -2.3799 O.co2     1 <0>        -0.6969
     38 O6          7.4666    3.2441   -1.6909 O.co2     1 <0>        -0.6999
     39 H4         -0.9598    1.9054    0.0260 H         1 <0>         0.1205
     40 H5          1.1508    3.1682    0.0077 H         1 <0>         0.1327
     41 H6          3.3358   -0.5219   -0.0330 H         1 <0>         0.1285
     42 H7          1.2138   -1.7656   -0.0191 H         1 <0>         0.1229
     43 H8         -1.1489   -1.7256    0.5176 H         1 <0>         0.0703
     44 H9         -2.0557   -0.1941    0.5345 H         1 <0>         0.0684
     45 H10        -1.8929   -0.0704   -1.9367 H         1 <0>         0.0639
     46 H11        -0.9861   -1.6019   -1.9536 H         1 <0>         0.0660
     47 H12        -2.9179   -2.7573   -0.9136 H         1 <0>         0.0622
     48 H13        -3.8248   -1.2258   -0.8967 H         1 <0>         0.0594
     49 H14        -3.6620   -1.1021   -3.3679 H         1 <0>         0.0624
     50 H15        -2.7551   -2.6337   -3.3848 H         1 <0>         0.0662
     51 H16        -4.6870   -3.7890   -2.3448 H         1 <0>         0.0690
     52 H17        -5.5939   -2.2575   -2.3279 H         1 <0>         0.0602
     53 H18        -5.4311   -2.1338   -4.7991 H         1 <0>         0.0736
     54 H19        -4.5242   -3.6654   -4.8160 H         1 <0>         0.0923
     55 H20        -5.8786   -5.8992   -4.1065 H         1 <0>         0.1509
     56 H21       -12.6290   -4.4419   -4.4609 H         1 <0>         0.4270
     57 H22       -12.7177   -6.1153   -4.3403 H         1 <0>         0.4146
     58 H23         4.8421    0.5294   -0.0416 H         1 <0>         0.3893
     59 H24         7.2537    0.4325    0.0090 H         1 <0>         0.0551
     60 H25         8.1565    1.8981    0.4621 H         1 <0>         0.0793
     61 H26         6.8522    2.0513    2.5654 H         1 <0>         0.0522
     62 H27         5.9494    0.5857    2.1123 H         1 <0>         0.0500
@<TRIPOS>BOND
     1    1    6 ar
     2    1    2 ar
     3    1   39 1
     4    2    3 ar
     5    2   40 1
     6    3    4 ar
     7    3   26 1
     8    4    5 ar
     9    4   41 1
    10    5    6 ar
    11    5   42 1
    12    6    7 1
    13    7    8 1
    14    7   43 1
    15    7   44 1
    16    8    9 1
    17    8   45 1
    18    8   46 1
    19    9   10 1
    20    9   47 1
    21    9   48 1
    22   10   11 1
    23   10   49 1
    24   10   50 1
    25   11   12 1
    26   11   51 1
    27   11   52 1
    28   12   13 1
    29   12   53 1
    30   12   54 1
    31   13   17 1
    32   13   14 2
    33   14   15 1
    34   14   55 1
    35   15   23 1
    36   15   16 2
    37   16   17 1
    38   16   19 1
    39   17   18 1
    40   19   20 2
    41   20   21 1
    42   20   25 1
    43   21   22 1
    44   21   23 am
    45   23   24 2
    46   25   56 1
    47   25   57 1
    48   26   27 2
    49   26   28 am
    50   28   29 1
    51   28   58 1
    52   29   30 1
    53   29   31 1
    54   29   36 1
    55   31   32 1
    56   31   59 1
    57   31   60 1
    58   32   33 1
    59   32   61 1
    60   32   62 1
    61   33   34 2
    62   33   35 1
    63   36   37 2
    64   36   38 1
@<TRIPOS>MOLECULE
CHEMBL502528
   59    61     0     0     0
SMALL
USER_CHARGES

@<TRIPOS>ATOM
      1 C1         -0.0167    1.3794    0.0096 C.ar      1 <0>        -0.1289
      2 C2          1.1667    2.0884    0.0021 C.ar      1 <0>        -0.0643
      3 C3          2.3848    1.4070   -0.0132 C.ar      1 <0>        -0.1095
      4 C4          2.3966    0.0113   -0.0208 C.ar      1 <0>        -0.0835
      5 C5          1.2061   -0.6856   -0.0132 C.ar      1 <0>        -0.1249
      6 C6          0.0021   -0.0041    0.0020 C.ar      1 <0>        -0.0783
      7 C7         -1.2946   -0.7719    0.0103 C.3       1 <0>        -0.0761
      8 C8         -1.7472   -1.0241   -1.4293 C.3       1 <0>        -0.1163
      9 C9         -3.0637   -1.8037   -1.4209 C.3       1 <0>        -0.1181
     10 C10        -3.5163   -2.0558   -2.8605 C.3       1 <0>        -0.1180
     11 C11        -4.8327   -2.8354   -2.8521 C.3       1 <0>        -0.0500
     12 C12        -5.2786   -3.0837   -4.2701 C.2       1 <0>         0.0351
     13 C13        -5.9829   -2.2217   -5.0221 C.2       1 <0>        -0.1087
     14 C14        -6.1917   -2.8674   -6.3170 C.2       1 <0>        -0.3164
     15 C15        -5.5691   -4.1210   -6.2370 C.2       1 <0>         0.3446
     16 N1         -5.0217   -4.2223   -4.9916 N.pl3     1 <0>        -0.5425
     17 H1         -4.5256   -4.9884   -4.6632 H         1 <0>         0.4188
     18 N2         -5.6051   -4.9375   -7.3003 N.2       1 <0>        -0.5894
     19 C16        -6.2116   -4.5832   -8.4101 C.2       1 <0>         0.6512
     20 N3         -6.8331   -3.3770   -8.5438 N.am      1 <0>        -0.6628
     21 H2         -7.2715   -3.1486   -9.3783 H         1 <0>         0.4129
     22 C17        -6.8403   -2.4983   -7.5158 C.2       1 <0>         0.5835
     23 O1         -7.3924   -1.4166   -7.6211 O.2       1 <0>        -0.5325
     24 N4         -6.2195   -5.4551   -9.4699 N.pl3     1 <0>        -0.8247
     25 C18         3.6569    2.1603   -0.0218 C.2       1 <0>         0.5502
     26 O2          3.6435    3.3757   -0.0155 O.2       1 <0>        -0.5548
     27 N5          4.8314    1.4994   -0.0366 N.am      1 <0>        -0.6759
     28 C19         6.0919    2.2459   -0.0451 C.3       1 <0>         0.0724
     29 H3          5.9814    3.1523    0.5501 H         1 <0>         0.0781
     30 C20         7.2027    1.3778    0.5494 C.3       1 <0>        -0.0804
     31 C21         6.9032    1.1060    2.0250 C.3       1 <0>        -0.1779
     32 C22         7.9973    0.2510    2.6105 C.2       1 <0>         0.4909
     33 O3          8.9302   -0.1078    1.9123 O.co2     1 <0>        -0.6971
     34 O4          7.9496   -0.0820    3.7824 O.co2     1 <0>        -0.7202
     35 C23         6.4472    2.6155   -1.4622 C.2       1 <0>         0.4956
     36 O5          5.7154    2.2860   -2.3799 O.co2     1 <0>        -0.6969
     37 O6          7.4666    3.2441   -1.6909 O.co2     1 <0>        -0.6999
     38 H4         -0.9598    1.9054    0.0260 H         1 <0>         0.1213
     39 H5          1.1508    3.1682    0.0077 H         1 <0>         0.1330
     40 H6          3.3358   -0.5219   -0.0330 H         1 <0>         0.1282
     41 H7          1.2138   -1.7656   -0.0191 H         1 <0>         0.1223
     42 H8         -1.1489   -1.7256    0.5176 H         1 <0>         0.0698
     43 H9         -2.0557   -0.1941    0.5345 H         1 <0>         0.0696
     44 H10        -1.8929   -0.0704   -1.9367 H         1 <0>         0.0658
     45 H11        -0.9861   -1.6019   -1.9536 H         1 <0>         0.0650
     46 H12        -2.9179   -2.7573   -0.9136 H         1 <0>         0.0617
     47 H13        -3.8248   -1.2258   -0.8967 H         1 <0>         0.0638
     48 H14        -3.6620   -1.1021   -3.3679 H         1 <0>         0.0703
     49 H15        -2.7551   -2.6337   -3.3848 H         1 <0>         0.0629
     50 H16        -4.6870   -3.7890   -2.3448 H         1 <0>         0.0728
     51 H17        -5.5939   -2.2575   -2.3279 H         1 <0>         0.0905
     52 H18        -6.3283   -1.2419   -4.7272 H         1 <0>         0.1505
     53 H19        -5.7818   -6.3173   -9.3919 H         1 <0>         0.4272
     54 H20        -6.6628   -5.2093  -10.2969 H         1 <0>         0.4145
     55 H21         4.8421    0.5294   -0.0416 H         1 <0>         0.3891
     56 H22         7.2537    0.4325    0.0090 H         1 <0>         0.0549
     57 H23         8.1565    1.8981    0.4621 H         1 <0>         0.0793
     58 H24         6.8522    2.0513    2.5654 H         1 <0>         0.0523
     59 H25         5.9494    0.5857    2.1123 H         1 <0>         0.0500
@<TRIPOS>BOND
     1    1    6 ar
     2    1    2 ar
     3    1   38 1
     4    2    3 ar
     5    2   39 1
     6    3    4 ar
     7    3   25 1
     8    4    5 ar
     9    4   40 1
    10    5    6 ar
    11    5   41 1
    12    6    7 1
    13    7    8 1
    14    7   42 1
    15    7   43 1
    16    8    9 1
    17    8   44 1
    18    8   45 1
    19    9   10 1
    20    9   46 1
    21    9   47 1
    22   10   11 1
    23   10   48 1
    24   10   49 1
    25   11   12 1
    26   11   50 1
    27   11   51 1
    28   12   16 1
    29   12   13 2
    30   13   14 1
    31   13   52 1
    32   14   22 1
    33   14   15 2
    34   15   16 1
    35   15   18 1
    36   16   17 1
    37   18   19 2
    38   19   20 1
    39   19   24 1
    40   20   21 1
    41   20   22 am
    42   22   23 2
    43   24   53 1
    44   24   54 1
    45   25   26 2
    46   25   27 am
    47   27   28 1
    48   27   55 1
    49   28   29 1
    50   28   30 1
    51   28   35 1
    52   30   31 1
    53   30   56 1
    54   30   57 1
    55   31   32 1
    56   31   58 1
    57   31   59 1
    58   32   33 2
    59   32   34 1
    60   35   36 2
    61   35   37 1
@<TRIPOS>MOLECULE
CHEMBL451819
   56    57     0     0     0
SMALL
USER_CHARGES

@<TRIPOS>ATOM
      1 C1         -0.0167    1.3794    0.0096 C.ar      1 <0>        -0.1195
      2 C2          1.1667    2.0884    0.0021 C.ar      1 <0>        -0.0629
      3 C3          2.3848    1.4070   -0.0132 C.ar      1 <0>        -0.1027
      4 C4          2.3966    0.0113   -0.0208 C.ar      1 <0>        -0.0824
      5 C5          1.2061   -0.6856   -0.0132 C.ar      1 <0>        -0.1223
      6 C6          0.0021   -0.0041    0.0020 C.ar      1 <0>        -0.0753
      7 C7         -1.2946   -0.7719    0.0103 C.3       1 <0>        -0.1108
      8 C8         -1.3540   -1.6591    1.2554 C.3       1 <0>        -0.1061
      9 C9         -2.7204   -2.3435    1.3293 C.3       1 <0>        -0.1162
     10 C10        -2.7798   -3.2307    2.5744 C.3       1 <0>        -0.0267
     11 C11        -4.1256   -3.9048    2.6471 C.2       1 <0>        -0.3986
     12 C12        -4.3033   -5.1854    2.1432 C.2       1 <0>         0.4884
     13 N1         -5.5061   -5.7670    2.2177 N.2       1 <0>        -0.6249
     14 C13        -6.5306   -5.1456    2.7625 C.2       1 <0>         0.6633
     15 N2         -6.4081   -3.8890    3.2706 N.am      1 <0>        -0.6618
     16 H1         -7.1770   -3.4503    3.6672 H         1 <0>         0.4087
     17 C14        -5.2181   -3.2541    3.2290 C.2       1 <0>         0.5558
     18 O1         -5.0985   -2.1287    3.6872 O.2       1 <0>        -0.5454
     19 N3         -7.7447   -5.7763    2.8190 N.pl3     1 <0>        -0.8225
     20 N4         -3.2436   -5.8564    1.5669 N.pl3     1 <0>        -0.8277
     21 C15        -1.3766   -1.6326   -1.2241 C.2       1 <0>         0.3589
     22 O2         -2.2806   -1.4771   -2.0095 O.2       1 <0>        -0.4631
     23 C16         3.6569    2.1603   -0.0218 C.2       1 <0>         0.5492
     24 O3          3.6435    3.3757   -0.0155 O.2       1 <0>        -0.5530
     25 N5          4.8314    1.4994   -0.0366 N.am      1 <0>        -0.6749
     26 C17         6.0919    2.2459   -0.0451 C.3       1 <0>         0.0723
     27 H2          5.9814    3.1523    0.5501 H         1 <0>         0.0783
     28 C18         7.2027    1.3778    0.5494 C.3       1 <0>        -0.0803
     29 C19         6.9032    1.1060    2.0250 C.3       1 <0>        -0.1779
     30 C20         7.9973    0.2510    2.6105 C.2       1 <0>         0.4909
     31 O4          8.9302   -0.1078    1.9123 O.co2     1 <0>        -0.6972
     32 O5          7.9496   -0.0820    3.7824 O.co2     1 <0>        -0.7200
     33 C21         6.4472    2.6155   -1.4622 C.2       1 <0>         0.4957
     34 O6          5.7154    2.2860   -2.3799 O.co2     1 <0>        -0.6969
     35 O7          7.4666    3.2441   -1.6909 O.co2     1 <0>        -0.6996
     36 H3         -0.9598    1.9054    0.0260 H         1 <0>         0.1241
     37 H4          1.1508    3.1682    0.0077 H         1 <0>         0.1357
     38 H5          3.3358   -0.5219   -0.0330 H         1 <0>         0.1314
     39 H6          1.2138   -1.7656   -0.0191 H         1 <0>         0.1268
     40 H7         -2.1308   -0.0728    0.0221 H         1 <0>         0.0991
     41 H8         -0.5712   -2.4156    1.2002 H         1 <0>         0.0732
     42 H9         -1.2057   -1.0470    2.1451 H         1 <0>         0.0809
     43 H10        -3.5032   -1.5870    1.3845 H         1 <0>         0.0664
     44 H11        -2.8687   -2.9556    0.4396 H         1 <0>         0.0525
     45 H12        -1.9970   -3.9872    2.5192 H         1 <0>         0.0579
     46 H13        -2.6315   -2.6186    3.4640 H         1 <0>         0.0743
     47 H14        -7.8432   -6.6718    2.4595 H         1 <0>         0.4273
     48 H15        -8.5063   -5.3275    3.2183 H         1 <0>         0.4148
     49 H16        -2.3726   -5.4328    1.5136 H         1 <0>         0.4166
     50 H17        -3.3700   -6.7515    1.2152 H         1 <0>         0.4046
     51 H18        -0.6270   -2.3884   -1.4062 H         1 <0>         0.0956
     52 H19         4.8421    0.5294   -0.0416 H         1 <0>         0.3893
     53 H20         7.2537    0.4325    0.0090 H         1 <0>         0.0551
     54 H21         8.1565    1.8981    0.4621 H         1 <0>         0.0793
     55 H22         6.8522    2.0513    2.5654 H         1 <0>         0.0523
     56 H23         5.9494    0.5857    2.1123 H         1 <0>         0.0502
@<TRIPOS>BOND
     1    1    6 ar
     2    1    2 ar
     3    1   36 1
     4    2    3 ar
     5    2   37 1
     6    3    4 ar
     7    3   23 1
     8    4    5 ar
     9    4   38 1
    10    5    6 ar
    11    5   39 1
    12    6    7 1
    13    7    8 1
    14    7   21 1
    15    7   40 1
    16    8    9 1
    17    8   41 1
    18    8   42 1
    19    9   10 1
    20    9   43 1
    21    9   44 1
    22   10   11 1
    23   10   45 1
    24   10   46 1
    25   11   17 1
    26   11   12 2
    27   12   13 1
    28   12   20 1
    29   13   14 2
    30   14   15 1
    31   14   19 1
    32   15   16 1
    33   15   17 am
    34   17   18 2
    35   19   47 1
    36   19   48 1
    37   20   49 1
    38   20   50 1
    39   21   22 2
    40   21   51 1
    41   23   24 2
    42   23   25 am
    43   25   26 1
    44   25   52 1
    45   26   27 1
    46   26   28 1
    47   26   33 1
    48   28   29 1
    49   28   53 1
    50   28   54 1
    51   29   30 1
    52   29   55 1
    53   29   56 1
    54   30   31 2
    55   30   32 1
    56   33   34 2
    57   33   35 1
@<TRIPOS>MOLECULE
CHEMBL451819__1
   56    57     0     0     0
SMALL
USER_CHARGES

@<TRIPOS>ATOM
      1 C1         -0.0167    1.3794    0.0096 C.ar      1 <0>        -0.1204
      2 C2          1.1667    2.0884    0.0021 C.ar      1 <0>        -0.0636
      3 C3          2.3848    1.4070   -0.0132 C.ar      1 <0>        -0.1027
      4 C4          2.3966    0.0113   -0.0208 C.ar      1 <0>        -0.0818
      5 C5          1.2061   -0.6856   -0.0132 C.ar      1 <0>        -0.1216
      6 C6          0.0021   -0.0041    0.0020 C.ar      1 <0>        -0.0756
      7 C7         -1.2946   -0.7719    0.0103 C.3       1 <0>        -0.1096
      8 C8         -1.3779   -1.6457   -1.2429 C.3       1 <0>        -0.1068
      9 C9         -2.7455   -2.3294   -1.2979 C.3       1 <0>        -0.1166
     10 C10        -2.8288   -3.2031   -2.5512 C.3       1 <0>        -0.0267
     11 C11        -4.1759   -3.8766   -2.6054 C.2       1 <0>        -0.3985
     12 C12        -5.2152   -3.3211   -3.3378 C.2       1 <0>         0.4882
     13 N1         -6.4039   -3.9347   -3.3738 N.2       1 <0>        -0.6254
     14 C13        -6.6087   -5.0613   -2.7247 C.2       1 <0>         0.6634
     15 N2         -5.6222   -5.6460   -1.9920 N.am      1 <0>        -0.6616
     16 H1         -5.7961   -6.4763   -1.5216 H         1 <0>         0.4089
     17 C14        -4.4008   -5.0764   -1.9232 C.2       1 <0>         0.5556
     18 O1         -3.5087   -5.5972   -1.2723 O.2       1 <0>        -0.5448
     19 N3         -7.8401   -5.6570   -2.7876 N.pl3     1 <0>        -0.8226
     20 N4         -5.0240   -2.1400   -4.0262 N.pl3     1 <0>        -0.8279
     21 C15        -1.3531   -1.6458    1.2367 C.2       1 <0>         0.3595
     22 O2         -2.2419   -1.4988    2.0409 O.2       1 <0>        -0.4642
     23 C16         3.6569    2.1603   -0.0218 C.2       1 <0>         0.5493
     24 O3          3.6435    3.3757   -0.0155 O.2       1 <0>        -0.5536
     25 N5          4.8314    1.4994   -0.0366 N.am      1 <0>        -0.6748
     26 C17         6.0919    2.2459   -0.0451 C.3       1 <0>         0.0723
     27 H2          5.9814    3.1523    0.5501 H         1 <0>         0.0782
     28 C18         7.2027    1.3778    0.5494 C.3       1 <0>        -0.0804
     29 C19         6.9032    1.1060    2.0250 C.3       1 <0>        -0.1781
     30 C20         7.9973    0.2510    2.6105 C.2       1 <0>         0.4909
     31 O4          8.9302   -0.1078    1.9123 O.co2     1 <0>        -0.6971
     32 O5          7.9496   -0.0820    3.7824 O.co2     1 <0>        -0.7200
     33 C21         6.4472    2.6155   -1.4622 C.2       1 <0>         0.4959
     34 O6          5.7154    2.2860   -2.3799 O.co2     1 <0>        -0.6969
     35 O7          7.4666    3.2441   -1.6909 O.co2     1 <0>        -0.6996
     36 H3         -0.9598    1.9054    0.0260 H         1 <0>         0.1234
     37 H4          1.1508    3.1682    0.0077 H         1 <0>         0.1354
     38 H5          3.3358   -0.5219   -0.0330 H         1 <0>         0.1317
     39 H6          1.2138   -1.7656   -0.0191 H         1 <0>         0.1279
     40 H7         -2.1308   -0.0728    0.0221 H         1 <0>         0.0977
     41 H8         -1.2465   -1.0241   -2.1286 H         1 <0>         0.0781
     42 H9         -0.5943   -2.4027   -1.2108 H         1 <0>         0.0762
     43 H10        -2.8769   -2.9510   -0.4123 H         1 <0>         0.0615
     44 H11        -3.5291   -1.5724   -1.3300 H         1 <0>         0.0579
     45 H12        -2.6975   -2.5815   -3.4369 H         1 <0>         0.0582
     46 H13        -2.0452   -3.9601   -2.5191 H         1 <0>         0.0739
     47 H14        -8.5506   -5.2486   -3.3067 H         1 <0>         0.4272
     48 H15        -8.0020   -6.4874   -2.3131 H         1 <0>         0.4149
     49 H16        -4.1617   -1.6967   -3.9985 H         1 <0>         0.4169
     50 H17        -5.7519   -1.7534   -4.5376 H         1 <0>         0.4042
     51 H18        -0.6002   -2.4034    1.3963 H         1 <0>         0.0971
     52 H19         4.8421    0.5294   -0.0416 H         1 <0>         0.3895
     53 H20         7.2537    0.4325    0.0090 H         1 <0>         0.0553
     54 H21         8.1565    1.8981    0.4621 H         1 <0>         0.0794
     55 H22         6.8522    2.0513    2.5654 H         1 <0>         0.0522
     56 H23         5.9494    0.5857    2.1123 H         1 <0>         0.0501
@<TRIPOS>BOND
     1    1    6 ar
     2    1    2 ar
     3    1   36 1
     4    2    3 ar
     5    2   37 1
     6    3    4 ar
     7    3   23 1
     8    4    5 ar
     9    4   38 1
    10    5    6 ar
    11    5   39 1
    12    6    7 1
    13    7    8 1
    14    7   21 1
    15    7   40 1
    16    8    9 1
    17    8   41 1
    18    8   42 1
    19    9   10 1
    20    9   43 1
    21    9   44 1
    22   10   11 1
    23   10   45 1
    24   10   46 1
    25   11   17 1
    26   11   12 2
    27   12   13 1
    28   12   20 1
    29   13   14 2
    30   14   15 1
    31   14   19 1
    32   15   16 1
    33   15   17 am
    34   17   18 2
    35   19   47 1
    36   19   48 1
    37   20   49 1
    38   20   50 1
    39   21   22 2
    40   21   51 1
    41   23   24 2
    42   23   25 am
    43   25   26 1
    44   25   52 1
    45   26   27 1
    46   26   28 1
    47   26   33 1
    48   28   29 1
    49   28   53 1
    50   28   54 1
    51   29   30 1
    52   29   55 1
    53   29   56 1
    54   30   31 2
    55   30   32 1
    56   33   34 2
    57   33   35 1
@<TRIPOS>MOLECULE
CHEMBL267890
   61    63     0     0     0
SMALL
USER_CHARGES

@<TRIPOS>ATOM
      1 C1          0.6957   -0.4924   -1.2713 C.3       1 <0>        -0.1498
      2 C2          0.0021   -0.0041    0.0020 C.3       1 <0>        -0.1391
      3 C3         -1.4699   -0.4202   -0.0274 C.3       1 <0>         0.0167
      4 C4         -2.1574    0.0942    1.2074 C.2       1 <0>        -0.3888
      5 C5         -3.0987   -0.6590    1.8856 C.2       1 <0>         0.4899
      6 N1         -3.6909   -0.1567    2.9779 N.2       1 <0>        -0.6220
      7 C6         -3.3897    1.0435    3.4251 C.2       1 <0>         0.6614
      8 N2         -2.4663    1.8215    2.7970 N.am      1 <0>        -0.6621
      9 C7         -1.8415    1.3702    1.6900 C.2       1 <0>         0.5570
     10 O1         -1.0144    2.0628    1.1182 O.2       1 <0>        -0.5477
     11 N3         -4.0175    1.5192    4.5452 N.pl3     1 <0>        -0.8218
     12 N4         -3.4351   -1.9287    1.4558 N.pl3     1 <0>        -0.7031
     13 C8         -3.0270   -2.3589    0.1119 C.3       1 <0>         0.1270
     14 C9         -1.5635   -1.9454   -0.0919 C.3       1 <0>        -0.1028
     15 C10        -0.6987   -2.5595    1.0107 C.3       1 <0>        -0.1069
     16 C11        -0.6946   -4.0827    0.8669 C.3       1 <0>        -0.0768
     17 C12         0.1573   -4.6876    1.9530 C.ar      1 <0>        -0.0744
     18 C13         1.5089   -4.8887    1.7364 C.ar      1 <0>        -0.1287
     19 C14         2.2944   -5.4420    2.7265 C.ar      1 <0>        -0.0640
     20 C15         1.7226   -5.7990    3.9487 C.ar      1 <0>        -0.1107
     21 C16         0.3585   -5.5934    4.1606 C.ar      1 <0>        -0.0831
     22 C17        -0.4146   -5.0340    3.1643 C.ar      1 <0>        -0.1239
     23 C18         2.5583   -6.3929    5.0140 C.2       1 <0>         0.5481
     24 O2          3.7460   -6.5711    4.8264 O.2       1 <0>        -0.5557
     25 N5          2.0032   -6.7365    6.1931 N.am      1 <0>        -0.6749
     26 C19         2.8312   -7.3250    7.2487 C.3       1 <0>         0.0726
     27 C20         1.9531   -8.1685    8.1750 C.3       1 <0>        -0.0810
     28 C21         1.3849   -9.3569    7.3966 C.3       1 <0>        -0.1775
     29 C22         0.5200  -10.1878    8.3090 C.2       1 <0>         0.4912
     30 O3          0.3718   -9.8599    9.4739 O.co2     1 <0>        -0.6974
     31 O4         -0.0316  -11.1879    7.8823 O.co2     1 <0>        -0.7198
     32 C23         3.4885   -6.2258    8.0430 C.2       1 <0>         0.4971
     33 O5          3.1479   -5.0668    7.8776 O.co2     1 <0>        -0.6980
     34 O6          4.3608   -6.4955    8.8510 O.co2     1 <0>        -0.7008
     35 H1          1.7157   -0.1091   -1.2992 H         1 <0>         0.0477
     36 H2          0.7167   -1.5821   -1.2785 H         1 <0>         0.0508
     37 H3          0.1488   -0.1338   -2.1433 H         1 <0>         0.0468
     38 H4          0.4872   -0.4460    0.8723 H         1 <0>         0.0594
     39 H5          0.0715    1.0822    0.0598 H         1 <0>         0.1021
     40 H6         -1.9483    0.0081   -0.9083 H         1 <0>         0.0602
     41 H7         -4.6769    0.9727    5.0006 H         1 <0>         0.4284
     42 H8         -3.8028    2.4027    4.8833 H         1 <0>         0.4142
     43 H9         -3.9334   -2.5276    2.0337 H         1 <0>         0.4089
     44 H10        -3.1195   -3.4417    0.0273 H         1 <0>         0.0895
     45 H11        -3.6543   -1.8749   -0.6366 H         1 <0>         0.0642
     46 H12        -1.2181   -2.2919   -1.0659 H         1 <0>         0.0872
     47 H13         0.3209   -2.1837    0.9245 H         1 <0>         0.0738
     48 H14        -1.1049   -2.2876    1.9850 H         1 <0>         0.0667
     49 H15        -1.7141   -4.4585    0.9532 H         1 <0>         0.0675
     50 H16        -0.2884   -4.3546   -0.1073 H         1 <0>         0.0690
     51 H17         1.9500   -4.6124    0.7901 H         1 <0>         0.1211
     52 H18         3.3492   -5.5988    2.5560 H         1 <0>         0.1325
     53 H19        -0.0900   -5.8675    5.1041 H         1 <0>         0.1274
     54 H20        -1.4694   -4.8703    3.3285 H         1 <0>         0.1203
     55 H21         1.0554   -6.5943    6.3427 H         1 <0>         0.3896
     56 H22         3.5975   -7.9568    6.7996 H         1 <0>         0.0783
     57 H23         2.5514   -8.5337    9.0098 H         1 <0>         0.0772
     58 H24         1.1340   -7.5579    8.5548 H         1 <0>         0.0562
     59 H25         0.7866   -8.9918    6.5618 H         1 <0>         0.0503
     60 H26         2.2040   -9.9676    7.0168 H         1 <0>         0.0527
     61 H27        -2.2574    2.7021    3.1459 H         1 <0>         0.4079
@<TRIPOS>BOND
     1    1    2 1
     2    1   35 1
     3    1   36 1
     4    1   37 1
     5    2    3 1
     6    2   38 1
     7    2   39 1
     8    3   14 1
     9    3    4 1
    10    3   40 1
    11    4    9 1
    12    4    5 2
    13    5    6 1
    14    5   12 1
    15    6    7 2
    16    7    8 1
    17    7   11 1
    18    8    9 am
    19    8   61 1
    20    9   10 2
    21   11   41 1
    22   11   42 1
    23   12   13 1
    24   12   43 1
    25   13   14 1
    26   13   44 1
    27   13   45 1
    28   14   15 1
    29   14   46 1
    30   15   16 1
    31   15   47 1
    32   15   48 1
    33   16   17 1
    34   16   49 1
    35   16   50 1
    36   17   22 ar
    37   17   18 ar
    38   18   19 ar
    39   18   51 1
    40   19   20 ar
    41   19   52 1
    42   20   21 ar
    43   20   23 1
    44   21   22 ar
    45   21   53 1
    46   22   54 1
    47   23   24 2
    48   23   25 am
    49   25   26 1
    50   25   55 1
    51   26   27 1
    52   26   32 1
    53   26   56 1
    54   27   28 1
    55   27   57 1
    56   27   58 1
    57   28   29 1
    58   28   59 1
    59   28   60 1
    60   29   30 2
    61   29   31 1
    62   32   33 2
    63   32   34 1
@<TRIPOS>MOLECULE
CHEMBL267890__1
   61    63     0     0     0
SMALL
USER_CHARGES

@<TRIPOS>ATOM
      1 C1         -1.4332   -0.5330    0.0374 C.3       1 <0>        -0.1495
      2 C2          0.0021   -0.0041    0.0020 C.3       1 <0>        -0.1400
      3 C3          0.7226   -0.3977    1.2930 C.3       1 <0>         0.0103
      4 C4          2.1222    0.1529    1.2695 C.2       1 <0>        -0.3422
      5 C5          3.1829   -0.5563    1.7407 C.2       1 <0>         0.4503
      6 N1          4.4345    0.0037    1.7006 N.pl3     1 <0>        -0.6540
      7 C6          4.6097    1.2527    1.1892 C.2       1 <0>         0.6609
      8 N2          3.5924    1.9468    0.7265 N.2       1 <0>        -0.6366
      9 C7          2.3483    1.4440    0.7451 C.2       1 <0>         0.5481
     10 O1          1.4140    2.1018    0.3103 O.2       1 <0>        -0.5263
     11 N3          5.8664    1.7965    1.1561 N.pl3     1 <0>        -0.8239
     12 N4          3.0270   -1.8249    2.2505 N.pl3     1 <0>        -0.7279
     13 C8          1.6773   -2.3064    2.5740 C.3       1 <0>         0.1326
     14 C9          0.7518   -1.9223    1.4115 C.3       1 <0>        -0.1064
     15 C10         1.2825   -2.5284    0.1107 C.3       1 <0>        -0.1076
     16 C11         1.1937   -4.0539    0.1854 C.3       1 <0>        -0.0762
     17 C12         1.7165   -4.6509   -1.0958 C.ar      1 <0>        -0.0755
     18 C13         0.8529   -4.8772   -2.1529 C.ar      1 <0>        -0.1276
     19 C14         1.3250   -5.4233   -3.3285 C.ar      1 <0>        -0.0628
     20 C15         2.6771   -5.7477   -3.4501 C.ar      1 <0>        -0.1094
     21 C16         3.5429   -5.5169   -2.3799 C.ar      1 <0>        -0.0835
     22 C17         3.0590   -4.9649   -1.2118 C.ar      1 <0>        -0.1255
     23 C18         3.1899   -6.3338   -4.7068 C.2       1 <0>         0.5476
     24 O2          2.4335   -6.5341   -5.6370 O.2       1 <0>        -0.5545
     25 N5          4.4960   -6.6459   -4.8211 N.am      1 <0>        -0.6747
     26 C19         5.0041   -7.2266   -6.0664 C.3       1 <0>         0.0724
     27 C20         6.2673   -8.0384   -5.7725 C.3       1 <0>        -0.0809
     28 C21         5.9110   -9.2326   -4.8848 C.3       1 <0>        -0.1774
     29 C22         7.1551  -10.0321   -4.5953 C.2       1 <0>         0.4910
     30 O3          8.2274   -9.6796   -5.0562 O.co2     1 <0>        -0.6972
     31 O4          7.0894  -11.0316   -3.9001 O.co2     1 <0>        -0.7199
     32 C23         5.3314   -6.1227   -7.0387 C.2       1 <0>         0.4969
     33 O5          5.3320   -4.9620   -6.6654 O.co2     1 <0>        -0.6979
     34 O6          5.5957   -6.3902   -8.1984 O.co2     1 <0>        -0.7002
     35 H1         -1.9258   -0.1865    0.9458 H         1 <0>         0.0472
     36 H2         -1.9770   -0.1665   -0.8333 H         1 <0>         0.0495
     37 H3         -1.4191   -1.6228    0.0247 H         1 <0>         0.0494
     38 H4          0.5264   -0.4329   -0.8520 H         1 <0>         0.0597
     39 H5         -0.0131    1.0820   -0.0889 H         1 <0>         0.1087
     40 H6          0.1880    0.0200    2.1461 H         1 <0>         0.0664
     41 H7          6.6223    1.2920    1.4954 H         1 <0>         0.4100
     42 H8          6.0006    2.6861    0.7934 H         1 <0>         0.4306
     43 H9          3.7989   -2.3944    2.3942 H         1 <0>         0.4038
     44 H10         1.6905   -3.3898    2.6932 H         1 <0>         0.0924
     45 H11         1.3285   -1.8372    3.4939 H         1 <0>         0.0671
     46 H12        -0.2543   -2.2934    1.6070 H         1 <0>         0.0902
     47 H13         0.6848   -2.1702   -0.7274 H         1 <0>         0.0768
     48 H14         2.3217   -2.2314   -0.0310 H         1 <0>         0.0645
     49 H15         1.7915   -4.4121    1.0235 H         1 <0>         0.0660
     50 H16         0.1546   -4.3509    0.3271 H         1 <0>         0.0701
     51 H17        -0.1931   -4.6260   -2.0573 H         1 <0>         0.1219
     52 H18         0.6499   -5.5998   -4.1527 H         1 <0>         0.1334
     53 H19         4.5902   -5.7657   -2.4677 H         1 <0>         0.1272
     54 H20         3.7286   -4.7817   -0.3846 H         1 <0>         0.1179
     55 H21         5.0996   -6.4861   -4.0788 H         1 <0>         0.3891
     56 H22         4.2456   -7.8789   -6.4992 H         1 <0>         0.0785
     57 H23         6.6951   -8.3966   -6.7088 H         1 <0>         0.0774
     58 H24         6.9931   -7.4078   -5.2591 H         1 <0>         0.0559
     59 H25         5.4832   -8.8744   -3.9485 H         1 <0>         0.0499
     60 H26         5.1851   -9.8631   -5.3982 H         1 <0>         0.0529
     61 H27         5.1970   -0.4920    2.0380 H         1 <0>         0.4110
@<TRIPOS>BOND
     1    1    2 1
     2    1   35 1
     3    1   36 1
     4    1   37 1
     5    2    3 1
     6    2   38 1
     7    2   39 1
     8    3   14 1
     9    3    4 1
    10    3   40 1
    11    4    9 1
    12    4    5 2
    13    5    6 1
    14    5   12 1
    15    6    7 1
    16    6   61 1
    17    7    8 2
    18    7   11 1
    19    8    9 1
    20    9   10 2
    21   11   41 1
    22   11   42 1
    23   12   13 1
    24   12   43 1
    25   13   14 1
    26   13   44 1
    27   13   45 1
    28   14   15 1
    29   14   46 1
    30   15   16 1
    31   15   47 1
    32   15   48 1
    33   16   17 1
    34   16   49 1
    35   16   50 1
    36   17   22 ar
    37   17   18 ar
    38   18   19 ar
    39   18   51 1
    40   19   20 ar
    41   19   52 1
    42   20   21 ar
    43   20   23 1
    44   21   22 ar
    45   21   53 1
    46   22   54 1
    47   23   24 2
    48   23   25 am
    49   25   26 1
    50   25   55 1
    51   26   27 1
    52   26   32 1
    53   26   56 1
    54   27   28 1
    55   27   57 1
    56   27   58 1
    57   28   29 1
    58   28   59 1
    59   28   60 1
    60   29   30 2
    61   29   31 1
    62   32   33 2
    63   32   34 1
@<TRIPOS>MOLECULE
CHEMBL267890__2
   61    63     0     0     0
SMALL
USER_CHARGES

@<TRIPOS>ATOM
      1 C1          0.6957   -0.4924   -1.2713 C.3       1 <0>        -0.1499
      2 C2          0.0021   -0.0041    0.0020 C.3       1 <0>        -0.1389
      3 C3         -1.4699   -0.4202   -0.0274 C.3       1 <0>         0.0169
      4 C4         -2.1574    0.0942    1.2074 C.2       1 <0>        -0.3896
      5 C5         -3.0987   -0.6590    1.8856 C.2       1 <0>         0.4903
      6 N1         -3.6909   -0.1567    2.9779 N.2       1 <0>        -0.6222
      7 C6         -3.3897    1.0435    3.4251 C.2       1 <0>         0.6621
      8 N2         -2.4663    1.8215    2.7970 N.am      1 <0>        -0.6621
      9 C7         -1.8415    1.3702    1.6900 C.2       1 <0>         0.5571
     10 O1         -1.0144    2.0628    1.1182 O.2       1 <0>        -0.5482
     11 N3         -4.0175    1.5192    4.5452 N.pl3     1 <0>        -0.8212
     12 N4         -3.4351   -1.9287    1.4558 N.pl3     1 <0>        -0.7033
     13 C8         -3.0270   -2.3589    0.1119 C.3       1 <0>         0.1271
     14 C9         -1.5635   -1.9454   -0.0919 C.3       1 <0>        -0.1028
     15 C10        -0.6987   -2.5595    1.0107 C.3       1 <0>        -0.1067
     16 C11        -0.6946   -4.0827    0.8669 C.3       1 <0>        -0.0771
     17 C12         0.1573   -4.6876    1.9530 C.ar      1 <0>        -0.0736
     18 C13         1.5089   -4.8887    1.7364 C.ar      1 <0>        -0.1288
     19 C14         2.2944   -5.4420    2.7265 C.ar      1 <0>        -0.0637
     20 C15         1.7226   -5.7990    3.9487 C.ar      1 <0>        -0.1125
     21 C16         0.3585   -5.5934    4.1606 C.ar      1 <0>        -0.0827
     22 C17        -0.4146   -5.0340    3.1643 C.ar      1 <0>        -0.1239
     23 C18         2.5583   -6.3929    5.0140 C.2       1 <0>         0.5434
     24 O2          3.7460   -6.5711    4.8264 O.2       1 <0>        -0.5534
     25 N5          2.0032   -6.7365    6.1931 N.am      1 <0>        -0.6756
     26 C19         2.8312   -7.3250    7.2487 C.3       1 <0>         0.0734
     27 C20         2.1892   -7.0546    8.6108 C.3       1 <0>        -0.0822
     28 C21         2.1916   -5.5495    8.8861 C.3       1 <0>        -0.1773
     29 C22         1.5592   -5.2832   10.2278 C.2       1 <0>         0.4915
     30 O3          1.1449   -6.2112   10.9014 O.co2     1 <0>        -0.6974
     31 O4          1.4619   -4.1398   10.6397 O.co2     1 <0>        -0.7198
     32 C23         2.9405   -8.8122    7.0311 C.2       1 <0>         0.4986
     33 O5          3.9401   -9.4094    7.3926 O.co2     1 <0>        -0.7009
     34 O6          2.0292   -9.4182    6.4936 O.co2     1 <0>        -0.6988
     35 H1          1.7157   -0.1091   -1.2992 H         1 <0>         0.0476
     36 H2          0.7167   -1.5821   -1.2785 H         1 <0>         0.0507
     37 H3          0.1488   -0.1338   -2.1433 H         1 <0>         0.0469
     38 H4          0.4872   -0.4460    0.8723 H         1 <0>         0.0591
     39 H5          0.0715    1.0822    0.0598 H         1 <0>         0.1022
     40 H6         -1.9483    0.0081   -0.9083 H         1 <0>         0.0601
     41 H7         -4.6769    0.9727    5.0006 H         1 <0>         0.4287
     42 H8         -3.8028    2.4027    4.8833 H         1 <0>         0.4145
     43 H9         -3.9334   -2.5276    2.0337 H         1 <0>         0.4089
     44 H10        -3.1195   -3.4417    0.0273 H         1 <0>         0.0893
     45 H11        -3.6543   -1.8749   -0.6366 H         1 <0>         0.0641
     46 H12        -1.2181   -2.2919   -1.0659 H         1 <0>         0.0870
     47 H13         0.3209   -2.1837    0.9245 H         1 <0>         0.0736
     48 H14        -1.1049   -2.2876    1.9850 H         1 <0>         0.0669
     49 H15        -1.7141   -4.4585    0.9532 H         1 <0>         0.0676
     50 H16        -0.2884   -4.3546   -0.1073 H         1 <0>         0.0691
     51 H17         1.9500   -4.6124    0.7901 H         1 <0>         0.1214
     52 H18         3.3492   -5.5988    2.5560 H         1 <0>         0.1328
     53 H19        -0.0900   -5.8675    5.1041 H         1 <0>         0.1280
     54 H20        -1.4694   -4.8703    3.3285 H         1 <0>         0.1206
     55 H21         1.0554   -6.5943    6.3427 H         1 <0>         0.3911
     56 H22         3.8258   -6.8797    7.2210 H         1 <0>         0.0778
     57 H23         1.1629   -7.4217    8.6080 H         1 <0>         0.0600
     58 H24         2.7562   -7.5670    9.3880 H         1 <0>         0.0728
     59 H25         3.2179   -5.1824    8.8889 H         1 <0>         0.0527
     60 H26         1.6245   -5.0371    8.1090 H         1 <0>         0.0506
     61 H27        -2.2574    2.7021    3.1459 H         1 <0>         0.4081
@<TRIPOS>BOND
     1    1    2 1
     2    1   35 1
     3    1   36 1
     4    1   37 1
     5    2    3 1
     6    2   38 1
     7    2   39 1
     8    3   14 1
     9    3    4 1
    10    3   40 1
    11    4    9 1
    12    4    5 2
    13    5    6 1
    14    5   12 1
    15    6    7 2
    16    7    8 1
    17    7   11 1
    18    8    9 am
    19    8   61 1
    20    9   10 2
    21   11   41 1
    22   11   42 1
    23   12   13 1
    24   12   43 1
    25   13   14 1
    26   13   44 1
    27   13   45 1
    28   14   15 1
    29   14   46 1
    30   15   16 1
    31   15   47 1
    32   15   48 1
    33   16   17 1
    34   16   49 1
    35   16   50 1
    36   17   22 ar
    37   17   18 ar
    38   18   19 ar
    39   18   51 1
    40   19   20 ar
    41   19   52 1
    42   20   21 ar
    43   20   23 1
    44   21   22 ar
    45   21   53 1
    46   22   54 1
    47   23   24 2
    48   23   25 am
    49   25   26 1
    50   25   55 1
    51   26   27 1
    52   26   32 1
    53   26   56 1
    54   27   28 1
    55   27   57 1
    56   27   58 1
    57   28   29 1
    58   28   59 1
    59   28   60 1
    60   29   30 2
    61   29   31 1
    62   32   33 2
    63   32   34 1
@<TRIPOS>MOLECULE
CHEMBL267890__3
   61    63     0     0     0
SMALL
USER_CHARGES

@<TRIPOS>ATOM
      1 C1         -1.4332   -0.5330    0.0374 C.3       1 <0>        -0.1496
      2 C2          0.0021   -0.0041    0.0020 C.3       1 <0>        -0.1398
      3 C3          0.7226   -0.3977    1.2930 C.3       1 <0>         0.0104
      4 C4          2.1222    0.1529    1.2695 C.2       1 <0>        -0.3426
      5 C5          3.1829   -0.5563    1.7407 C.2       1 <0>         0.4506
      6 N1          4.4345    0.0037    1.7006 N.pl3     1 <0>        -0.6541
      7 C6          4.6097    1.2527    1.1892 C.2       1 <0>         0.6614
      8 N2          3.5924    1.9468    0.7265 N.2       1 <0>        -0.6367
      9 C7          2.3483    1.4440    0.7451 C.2       1 <0>         0.5482
     10 O1          1.4140    2.1018    0.3103 O.2       1 <0>        -0.5269
     11 N3          5.8664    1.7965    1.1561 N.pl3     1 <0>        -0.8233
     12 N4          3.0270   -1.8249    2.2505 N.pl3     1 <0>        -0.7281
     13 C8          1.6773   -2.3064    2.5740 C.3       1 <0>         0.1326
     14 C9          0.7518   -1.9223    1.4115 C.3       1 <0>        -0.1063
     15 C10         1.2825   -2.5284    0.1107 C.3       1 <0>        -0.1074
     16 C11         1.1937   -4.0539    0.1854 C.3       1 <0>        -0.0765
     17 C12         1.7165   -4.6509   -1.0958 C.ar      1 <0>        -0.0747
     18 C13         0.8529   -4.8772   -2.1529 C.ar      1 <0>        -0.1277
     19 C14         1.3250   -5.4233   -3.3285 C.ar      1 <0>        -0.0625
     20 C15         2.6771   -5.7477   -3.4501 C.ar      1 <0>        -0.1112
     21 C16         3.5429   -5.5169   -2.3799 C.ar      1 <0>        -0.0831
     22 C17         3.0590   -4.9649   -1.2118 C.ar      1 <0>        -0.1254
     23 C18         3.1899   -6.3338   -4.7068 C.2       1 <0>         0.5429
     24 O2          2.4335   -6.5341   -5.6370 O.2       1 <0>        -0.5522
     25 N5          4.4960   -6.6459   -4.8211 N.am      1 <0>        -0.6754
     26 C19         5.0041   -7.2266   -6.0664 C.3       1 <0>         0.0732
     27 C20         6.4971   -6.9200   -6.2002 C.3       1 <0>        -0.0821
     28 C21         6.6966   -5.4102   -6.3468 C.3       1 <0>        -0.1773
     29 C22         8.1671   -5.1082   -6.4785 C.2       1 <0>         0.4913
     30 O3          8.9803   -6.0164   -6.4572 O.co2     1 <0>        -0.6976
     31 O4          8.5437   -3.9556   -6.6065 O.co2     1 <0>        -0.7194
     32 C23         4.7978   -8.7193   -6.0455 C.2       1 <0>         0.4987
     33 O5          4.6204   -9.3248   -7.0888 O.co2     1 <0>        -0.7004
     34 O6          4.8082   -9.3213   -4.9854 O.co2     1 <0>        -0.6992
     35 H1         -1.9258   -0.1865    0.9458 H         1 <0>         0.0473
     36 H2         -1.9770   -0.1665   -0.8333 H         1 <0>         0.0493
     37 H3         -1.4191   -1.6228    0.0247 H         1 <0>         0.0494
     38 H4          0.5264   -0.4329   -0.8520 H         1 <0>         0.0594
     39 H5         -0.0131    1.0820   -0.0889 H         1 <0>         0.1088
     40 H6          0.1880    0.0200    2.1461 H         1 <0>         0.0664
     41 H7          6.6223    1.2920    1.4954 H         1 <0>         0.4103
     42 H8          6.0006    2.6861    0.7934 H         1 <0>         0.4308
     43 H9          3.7989   -2.3944    2.3942 H         1 <0>         0.4038
     44 H10         1.6905   -3.3898    2.6932 H         1 <0>         0.0921
     45 H11         1.3285   -1.8372    3.4939 H         1 <0>         0.0670
     46 H12        -0.2543   -2.2934    1.6070 H         1 <0>         0.0901
     47 H13         0.6848   -2.1702   -0.7274 H         1 <0>         0.0767
     48 H14         2.3217   -2.2314   -0.0310 H         1 <0>         0.0646
     49 H15         1.7915   -4.4121    1.0235 H         1 <0>         0.0661
     50 H16         0.1546   -4.3509    0.3271 H         1 <0>         0.0703
     51 H17        -0.1931   -4.6260   -2.0573 H         1 <0>         0.1222
     52 H18         0.6499   -5.5998   -4.1527 H         1 <0>         0.1337
     53 H19         4.5902   -5.7657   -2.4677 H         1 <0>         0.1278
     54 H20         3.7286   -4.7817   -0.3846 H         1 <0>         0.1183
     55 H21         5.0996   -6.4861   -4.0788 H         1 <0>         0.3906
     56 H22         4.4678   -6.7975   -6.9128 H         1 <0>         0.0781
     57 H23         7.0212   -7.2712   -5.3113 H         1 <0>         0.0597
     58 H24         6.8946   -7.4261   -7.0800 H         1 <0>         0.0730
     59 H25         6.1725   -5.0590   -7.2356 H         1 <0>         0.0532
     60 H26         6.2991   -4.9041   -5.4670 H         1 <0>         0.0502
     61 H27         5.1970   -0.4920    2.0380 H         1 <0>         0.4112
@<TRIPOS>BOND
     1    1    2 1
     2    1   35 1
     3    1   36 1
     4    1   37 1
     5    2    3 1
     6    2   38 1
     7    2   39 1
     8    3   14 1
     9    3    4 1
    10    3   40 1
    11    4    9 1
    12    4    5 2
    13    5    6 1
    14    5   12 1
    15    6    7 1
    16    6   61 1
    17    7    8 2
    18    7   11 1
    19    8    9 1
    20    9   10 2
    21   11   41 1
    22   11   42 1
    23   12   13 1
    24   12   43 1
    25   13   14 1
    26   13   44 1
    27   13   45 1
    28   14   15 1
    29   14   46 1
    30   15   16 1
    31   15   47 1
    32   15   48 1
    33   16   17 1
    34   16   49 1
    35   16   50 1
    36   17   22 ar
    37   17   18 ar
    38   18   19 ar
    39   18   51 1
    40   19   20 ar
    41   19   52 1
    42   20   21 ar
    43   20   23 1
    44   21   22 ar
    45   21   53 1
    46   22   54 1
    47   23   24 2
    48   23   25 am
    49   25   26 1
    50   25   55 1
    51   26   27 1
    52   26   32 1
    53   26   56 1
    54   27   28 1
    55   27   57 1
    56   27   58 1
    57   28   29 1
    58   28   59 1
    59   28   60 1
    60   29   30 2
    61   29   31 1
    62   32   33 2
    63   32   34 1
@<TRIPOS>MOLECULE
CHEMBL267890__4
   61    63     0     0     0
SMALL
USER_CHARGES

@<TRIPOS>ATOM
      1 C1          0.6787   -0.4017    1.3154 C.3       1 <0>        -0.1353
      2 C2          0.0021   -0.0041    0.0020 C.3       1 <0>        -0.1294
      3 C3         -1.3939   -0.6271   -0.0616 C.3       1 <0>         0.0100
      4 C4         -2.1740   -0.2262    1.1601 C.2       1 <0>        -0.3769
      5 C5         -3.0113   -1.1119    1.8142 C.2       1 <0>         0.4796
      6 N1         -3.6924   -0.7083    2.8954 N.2       1 <0>        -0.6234
      7 C6         -3.5764    0.5193    3.3546 C.2       1 <0>         0.6571
      8 N2         -2.7621    1.4269    2.7499 N.am      1 <0>        -0.6629
      9 C7         -2.0551    1.0782    1.6553 C.2       1 <0>         0.5557
     10 O1         -1.3243    1.8868    1.1050 O.2       1 <0>        -0.5399
     11 N3         -4.2895    0.8914    4.4628 N.pl3     1 <0>        -0.8247
     12 N4         -3.1525   -2.4135    1.3713 N.pl3     1 <0>        -0.7076
     13 C8         -2.6586   -2.7703    0.0347 C.3       1 <0>         0.1248
     14 C9         -1.2658   -2.1494   -0.1350 C.3       1 <0>        -0.1018
     15 C10        -0.6874   -2.5506   -1.4934 C.3       1 <0>        -0.1092
     16 C11        -0.4440   -4.0610   -1.5180 C.3       1 <0>        -0.0773
     17 C12         0.1258   -4.4562   -2.8560 C.ar      1 <0>        -0.0770
     18 C13        -0.7241   -4.8034   -3.8911 C.ar      1 <0>        -0.1289
     19 C14        -0.2090   -5.1662   -5.1184 C.ar      1 <0>        -0.0646
     20 C15         1.1728   -5.1824   -5.3147 C.ar      1 <0>        -0.1096
     21 C16         2.0246   -4.8311   -4.2663 C.ar      1 <0>        -0.0826
     22 C17         1.4963   -4.4648   -3.0456 C.ar      1 <0>        -0.1234
     23 C18         1.7318   -5.5707   -6.6272 C.2       1 <0>         0.5478
     24 O2          0.9875   -5.8766   -7.5383 O.2       1 <0>        -0.5562
     25 N5          3.0665   -5.5854   -6.8135 N.am      1 <0>        -0.6745
     26 C19         3.6204   -5.9700   -8.1140 C.3       1 <0>         0.0726
     27 C20         5.0416   -6.5043   -7.9252 C.3       1 <0>        -0.0812
     28 C21         4.9963   -7.7961   -7.1065 C.3       1 <0>        -0.1775
     29 C22         6.3961   -8.3223   -6.9205 C.2       1 <0>         0.4911
     30 O3          7.3423   -7.7200   -7.3985 O.co2     1 <0>        -0.6972
     31 O4          6.5824   -9.3504   -6.2921 O.co2     1 <0>        -0.7201
     32 C23         3.6523   -4.7677   -9.0219 C.2       1 <0>         0.4969
     33 O5          3.4244   -3.6577   -8.5718 O.co2     1 <0>        -0.6975
     34 O6          3.9059   -4.9048  -10.2066 O.co2     1 <0>        -0.7010
     35 H1          1.6808    0.0254    1.3517 H         1 <0>         0.0445
     36 H2          0.0929   -0.0258    2.1542 H         1 <0>         0.0409
     37 H3          0.7442   -1.4881    1.3760 H         1 <0>         0.0469
     38 H4         -0.0819    1.0815   -0.0493 H         1 <0>         0.0949
     39 H5          0.5985   -0.3625   -0.8370 H         1 <0>         0.0590
     40 H6         -1.9101   -0.2653   -0.9508 H         1 <0>         0.0656
     41 H7         -4.8730    0.2524    4.9011 H         1 <0>         0.4265
     42 H8         -4.2112    1.7939    4.8095 H         1 <0>         0.4136
     43 H9         -3.5717   -3.0821    1.9354 H         1 <0>         0.4062
     44 H10        -2.5927   -3.8545   -0.0568 H         1 <0>         0.0910
     45 H11        -3.3331   -2.3758   -0.7252 H         1 <0>         0.0682
     46 H12        -0.6099   -2.4998    0.6619 H         1 <0>         0.0831
     47 H13        -1.3914   -2.2832   -2.2814 H         1 <0>         0.0687
     48 H14         0.2553   -2.0280   -1.6556 H         1 <0>         0.0771
     49 H15         0.2600   -4.3284   -0.7300 H         1 <0>         0.0713
     50 H16        -1.3866   -4.5836   -1.3559 H         1 <0>         0.0693
     51 H17        -1.7931   -4.7907   -3.7378 H         1 <0>         0.1208
     52 H18        -0.8735   -5.4373   -5.9255 H         1 <0>         0.1325
     53 H19         3.0947   -4.8417   -4.4117 H         1 <0>         0.1284
     54 H20         2.1542   -4.1884   -2.2349 H         1 <0>         0.1231
     55 H21         3.6604   -5.3412   -6.0864 H         1 <0>         0.3900
     56 H22         2.9970   -6.7453   -8.5595 H         1 <0>         0.0782
     57 H23         5.4860   -6.7072   -8.8996 H         1 <0>         0.0771
     58 H24         5.6420   -5.7619   -7.3995 H         1 <0>         0.0565
     59 H25         4.5519   -7.5932   -6.1321 H         1 <0>         0.0505
     60 H26         4.3958   -8.5385   -7.6322 H         1 <0>         0.0526
     61 H27        -2.6898    2.3259    3.1069 H         1 <0>         0.4073
@<TRIPOS>BOND
     1    1    2 1
     2    1   35 1
     3    1   36 1
     4    1   37 1
     5    2    3 1
     6    2   38 1
     7    2   39 1
     8    3   14 1
     9    3    4 1
    10    3   40 1
    11    4    9 1
    12    4    5 2
    13    5    6 1
    14    5   12 1
    15    6    7 2
    16    7    8 1
    17    7   11 1
    18    8    9 am
    19    8   61 1
    20    9   10 2
    21   11   41 1
    22   11   42 1
    23   12   13 1
    24   12   43 1
    25   13   14 1
    26   13   44 1
    27   13   45 1
    28   14   15 1
    29   14   46 1
    30   15   16 1
    31   15   47 1
    32   15   48 1
    33   16   17 1
    34   16   49 1
    35   16   50 1
    36   17   22 ar
    37   17   18 ar
    38   18   19 ar
    39   18   51 1
    40   19   20 ar
    41   19   52 1
    42   20   21 ar
    43   20   23 1
    44   21   22 ar
    45   21   53 1
    46   22   54 1
    47   23   24 2
    48   23   25 am
    49   25   26 1
    50   25   55 1
    51   26   27 1
    52   26   32 1
    53   26   56 1
    54   27   28 1
    55   27   57 1
    56   27   58 1
    57   28   29 1
    58   28   59 1
    59   28   60 1
    60   29   30 2
    61   29   31 1
    62   32   33 2
    63   32   34 1
@<TRIPOS>MOLECULE
CHEMBL267890__5
   61    63     0     0     0
SMALL
USER_CHARGES

@<TRIPOS>ATOM
      1 C1          0.8118   -0.3848   -1.2390 C.3       1 <0>        -0.1367
      2 C2          0.0021   -0.0041    0.0020 C.3       1 <0>        -0.1294
      3 C3          0.6602   -0.6064    1.2450 C.3       1 <0>         0.0035
      4 C4          2.0978   -0.1681    1.3088 C.2       1 <0>        -0.3309
      5 C5          3.0902   -1.0099    1.7041 C.2       1 <0>         0.4395
      6 N1          4.3813   -0.5488    1.7506 N.pl3     1 <0>        -0.6551
      7 C6          4.6627    0.7355    1.3987 C.2       1 <0>         0.6569
      8 N2          3.7122    1.5577    1.0096 N.2       1 <0>        -0.6359
      9 C7          2.4333    1.1553    0.9499 C.2       1 <0>         0.5463
     10 O1          1.5621    1.9321    0.5860 O.2       1 <0>        -0.5178
     11 N3          5.9575    1.1793    1.4502 N.pl3     1 <0>        -0.8263
     12 N4          2.8266   -2.3149    2.0523 N.pl3     1 <0>        -0.7323
     13 C8          1.4370   -2.7250    2.2954 C.3       1 <0>         0.1300
     14 C9          0.5708   -2.1317    1.1759 C.3       1 <0>        -0.1049
     15 C10        -0.8829   -2.5699    1.3646 C.3       1 <0>        -0.1097
     16 C11        -0.9884   -4.0840    1.1713 C.3       1 <0>        -0.0765
     17 C12        -2.4202   -4.5156    1.3572 C.ar      1 <0>        -0.0782
     18 C13        -2.8747   -4.8711    2.6147 C.ar      1 <0>        -0.1289
     19 C14        -4.1843   -5.2672    2.7917 C.ar      1 <0>        -0.0647
     20 C15        -5.0513   -5.3088    1.6987 C.ar      1 <0>        -0.1088
     21 C16        -4.5864   -4.9489    0.4328 C.ar      1 <0>        -0.0823
     22 C17        -3.2760   -4.5493    0.2705 C.ar      1 <0>        -0.1229
     23 C18        -6.4559   -5.7327    1.8810 C.2       1 <0>         0.5475
     24 O2         -6.8579   -6.0459    2.9845 O.2       1 <0>        -0.5560
     25 N5         -7.2907   -5.7718    0.8236 N.am      1 <0>        -0.6743
     26 C19        -8.6825   -6.1919    1.0042 C.3       1 <0>         0.0725
     27 C20        -9.2240   -6.7439   -0.3160 C.3       1 <0>        -0.0813
     28 C21        -8.4617   -8.0175   -0.6871 C.3       1 <0>        -0.1774
     29 C22        -8.9951   -8.5613   -1.9875 C.2       1 <0>         0.4911
     30 O3         -9.9009   -7.9837   -2.5639 O.co2     1 <0>        -0.6969
     31 O4         -8.5208   -9.5789   -2.4630 O.co2     1 <0>        -0.7202
     32 C23        -9.5126   -5.0092    1.4323 C.2       1 <0>         0.4969
     33 O5         -9.0377   -3.8868    1.3982 O.co2     1 <0>        -0.6973
     34 O6        -10.6590   -5.1748    1.8127 O.co2     1 <0>        -0.7008
     35 H1          0.8592   -1.4705   -1.3230 H         1 <0>         0.0443
     36 H2          0.3320    0.0277   -2.1266 H         1 <0>         0.0465
     37 H3          1.8212    0.0172   -1.1517 H         1 <0>         0.0436
     38 H4         -0.0285    1.0814    0.0970 H         1 <0>         0.1008
     39 H5         -1.0131   -0.3891   -0.0943 H         1 <0>         0.0596
     40 H6          0.1390   -0.2546    2.1353 H         1 <0>         0.0716
     41 H7          6.6647    0.5799    1.7356 H         1 <0>         0.4083
     42 H8          6.1672    2.0931    1.2012 H         1 <0>         0.4301
     43 H9          3.5495   -2.9562    2.1358 H         1 <0>         0.4010
     44 H10         1.3652   -3.8126    2.2810 H         1 <0>         0.0936
     45 H11         1.1034   -2.3449    3.2609 H         1 <0>         0.0710
     46 H12         0.9367   -2.4762    0.2087 H         1 <0>         0.0844
     47 H13        -1.2138   -2.3081    2.3696 H         1 <0>         0.0694
     48 H14        -1.5125   -2.0653    0.6318 H         1 <0>         0.0790
     49 H15        -0.6575   -4.3459    0.1663 H         1 <0>         0.0712
     50 H16        -0.3587   -4.5886    1.9041 H         1 <0>         0.0680
     51 H17        -2.2026   -4.8388    3.4595 H         1 <0>         0.1203
     52 H18        -4.5377   -5.5447    3.7738 H         1 <0>         0.1326
     53 H19        -5.2523   -4.9790   -0.4170 H         1 <0>         0.1288
     54 H20        -2.9162   -4.2663   -0.7077 H         1 <0>         0.1233
     55 H21        -6.9699   -5.5218   -0.0571 H         1 <0>         0.3901
     56 H22        -8.7318   -6.9665    1.7694 H         1 <0>         0.0781
     57 H23       -10.2838   -6.9738   -0.2062 H         1 <0>         0.0772
     58 H24        -9.0930   -6.0001   -1.1019 H         1 <0>         0.0567
     59 H25        -7.4019   -7.7877   -0.7969 H         1 <0>         0.0503
     60 H26        -8.5927   -8.7614    0.0988 H         1 <0>         0.0525
     61 H27         5.0958   -1.1397    2.0353 H         1 <0>         0.4088
@<TRIPOS>BOND
     1    1    2 1
     2    1   35 1
     3    1   36 1
     4    1   37 1
     5    2    3 1
     6    2   38 1
     7    2   39 1
     8    3   14 1
     9    3    4 1
    10    3   40 1
    11    4    9 1
    12    4    5 2
    13    5    6 1
    14    5   12 1
    15    6    7 1
    16    6   61 1
    17    7    8 2
    18    7   11 1
    19    8    9 1
    20    9   10 2
    21   11   41 1
    22   11   42 1
    23   12   13 1
    24   12   43 1
    25   13   14 1
    26   13   44 1
    27   13   45 1
    28   14   15 1
    29   14   46 1
    30   15   16 1
    31   15   47 1
    32   15   48 1
    33   16   17 1
    34   16   49 1
    35   16   50 1
    36   17   22 ar
    37   17   18 ar
    38   18   19 ar
    39   18   51 1
    40   19   20 ar
    41   19   52 1
    42   20   21 ar
    43   20   23 1
    44   21   22 ar
    45   21   53 1
    46   22   54 1
    47   23   24 2
    48   23   25 am
    49   25   26 1
    50   25   55 1
    51   26   27 1
    52   26   32 1
    53   26   56 1
    54   27   28 1
    55   27   57 1
    56   27   58 1
    57   28   29 1
    58   28   59 1
    59   28   60 1
    60   29   30 2
    61   29   31 1
    62   32   33 2
    63   32   34 1
@<TRIPOS>MOLECULE
CHEMBL267890__6
   61    63     0     0     0
SMALL
USER_CHARGES

@<TRIPOS>ATOM
      1 C1          0.6787   -0.4017    1.3154 C.3       1 <0>        -0.1353
      2 C2          0.0021   -0.0041    0.0020 C.3       1 <0>        -0.1294
      3 C3         -1.3939   -0.6271   -0.0616 C.3       1 <0>         0.0100
      4 C4         -2.1740   -0.2262    1.1601 C.2       1 <0>        -0.3767
      5 C5         -3.0113   -1.1119    1.8142 C.2       1 <0>         0.4794
      6 N1         -3.6924   -0.7083    2.8954 N.2       1 <0>        -0.6233
      7 C6         -3.5764    0.5193    3.3546 C.2       1 <0>         0.6571
      8 N2         -2.7621    1.4269    2.7499 N.am      1 <0>        -0.6628
      9 C7         -2.0551    1.0782    1.6553 C.2       1 <0>         0.5556
     10 O1         -1.3243    1.8868    1.1050 O.2       1 <0>        -0.5394
     11 N3         -4.2895    0.8914    4.4628 N.pl3     1 <0>        -0.8247
     12 N4         -3.1525   -2.4135    1.3713 N.pl3     1 <0>        -0.7077
     13 C8         -2.6586   -2.7703    0.0347 C.3       1 <0>         0.1249
     14 C9         -1.2658   -2.1494   -0.1350 C.3       1 <0>        -0.1018
     15 C10        -0.6874   -2.5506   -1.4934 C.3       1 <0>        -0.1090
     16 C11        -0.4440   -4.0610   -1.5180 C.3       1 <0>        -0.0776
     17 C12         0.1258   -4.4562   -2.8560 C.ar      1 <0>        -0.0762
     18 C13        -0.7241   -4.8034   -3.8911 C.ar      1 <0>        -0.1289
     19 C14        -0.2090   -5.1662   -5.1184 C.ar      1 <0>        -0.0643
     20 C15         1.1728   -5.1824   -5.3147 C.ar      1 <0>        -0.1114
     21 C16         2.0246   -4.8311   -4.2663 C.ar      1 <0>        -0.0822
     22 C17         1.4963   -4.4648   -3.0456 C.ar      1 <0>        -0.1233
     23 C18         1.7318   -5.5707   -6.6272 C.2       1 <0>         0.5431
     24 O2          0.9875   -5.8766   -7.5383 O.2       1 <0>        -0.5539
     25 N5          3.0665   -5.5854   -6.8135 N.am      1 <0>        -0.6752
     26 C19         3.6204   -5.9700   -8.1140 C.3       1 <0>         0.0735
     27 C20         5.0041   -5.3401   -8.2855 C.3       1 <0>        -0.0824
     28 C21         4.8682   -3.8171   -8.3379 C.3       1 <0>        -0.1773
     29 C22         6.2311   -3.1966   -8.5068 C.2       1 <0>         0.4912
     30 O3          7.2196   -3.9068   -8.5786 O.co2     1 <0>        -0.6979
     31 O4          6.3454   -1.9845   -8.5717 O.co2     1 <0>        -0.7192
     32 C23         3.7392   -7.4706   -8.1854 C.2       1 <0>         0.4985
     33 O5          3.6405   -8.0396   -9.2592 O.co2     1 <0>        -0.7011
     34 O6          3.9341   -8.1158   -7.1694 O.co2     1 <0>        -0.6988
     35 H1          1.6808    0.0254    1.3517 H         1 <0>         0.0448
     36 H2          0.0929   -0.0258    2.1542 H         1 <0>         0.0408
     37 H3          0.7442   -1.4881    1.3760 H         1 <0>         0.0467
     38 H4         -0.0819    1.0815   -0.0493 H         1 <0>         0.0951
     39 H5          0.5985   -0.3625   -0.8370 H         1 <0>         0.0591
     40 H6         -1.9101   -0.2653   -0.9508 H         1 <0>         0.0655
     41 H7         -4.8730    0.2524    4.9011 H         1 <0>         0.4265
     42 H8         -4.2112    1.7939    4.8095 H         1 <0>         0.4137
     43 H9         -3.5717   -3.0821    1.9354 H         1 <0>         0.4062
     44 H10        -2.5927   -3.8545   -0.0568 H         1 <0>         0.0909
     45 H11        -3.3331   -2.3758   -0.7252 H         1 <0>         0.0681
     46 H12        -0.6099   -2.4998    0.6619 H         1 <0>         0.0831
     47 H13        -1.3914   -2.2832   -2.2814 H         1 <0>         0.0685
     48 H14         0.2553   -2.0280   -1.6556 H         1 <0>         0.0772
     49 H15         0.2600   -4.3284   -0.7300 H         1 <0>         0.0714
     50 H16        -1.3866   -4.5836   -1.3559 H         1 <0>         0.0695
     51 H17        -1.7931   -4.7907   -3.7378 H         1 <0>         0.1211
     52 H18        -0.8735   -5.4373   -5.9255 H         1 <0>         0.1328
     53 H19         3.0947   -4.8417   -4.4117 H         1 <0>         0.1290
     54 H20         2.1542   -4.1884   -2.2349 H         1 <0>         0.1235
     55 H21         3.6604   -5.3412   -6.0864 H         1 <0>         0.3915
     56 H22         2.9608   -5.6196   -8.9079 H         1 <0>         0.0779
     57 H23         5.6374   -5.6196   -7.4435 H         1 <0>         0.0602
     58 H24         5.4534   -5.6969   -9.2123 H         1 <0>         0.0727
     59 H25         4.2349   -3.5376   -9.1799 H         1 <0>         0.0527
     60 H26         4.4189   -3.4603   -7.4112 H         1 <0>         0.0512
     61 H27        -2.6898    2.3259    3.1069 H         1 <0>         0.4074
@<TRIPOS>BOND
     1    1    2 1
     2    1   35 1
     3    1   36 1
     4    1   37 1
     5    2    3 1
     6    2   38 1
     7    2   39 1
     8    3   14 1
     9    3    4 1
    10    3   40 1
    11    4    9 1
    12    4    5 2
    13    5    6 1
    14    5   12 1
    15    6    7 2
    16    7    8 1
    17    7   11 1
    18    8    9 am
    19    8   61 1
    20    9   10 2
    21   11   41 1
    22   11   42 1
    23   12   13 1
    24   12   43 1
    25   13   14 1
    26   13   44 1
    27   13   45 1
    28   14   15 1
    29   14   46 1
    30   15   16 1
    31   15   47 1
    32   15   48 1
    33   16   17 1
    34   16   49 1
    35   16   50 1
    36   17   22 ar
    37   17   18 ar
    38   18   19 ar
    39   18   51 1
    40   19   20 ar
    41   19   52 1
    42   20   21 ar
    43   20   23 1
    44   21   22 ar
    45   21   53 1
    46   22   54 1
    47   23   24 2
    48   23   25 am
    49   25   26 1
    50   25   55 1
    51   26   27 1
    52   26   32 1
    53   26   56 1
    54   27   28 1
    55   27   57 1
    56   27   58 1
    57   28   29 1
    58   28   59 1
    59   28   60 1
    60   29   30 2
    61   29   31 1
    62   32   33 2
    63   32   34 1
@<TRIPOS>MOLECULE
CHEMBL267890__7
   61    63     0     0     0
SMALL
USER_CHARGES

@<TRIPOS>ATOM
      1 C1          0.8118   -0.3848   -1.2390 C.3       1 <0>        -0.1367
      2 C2          0.0021   -0.0041    0.0020 C.3       1 <0>        -0.1295
      3 C3          0.6602   -0.6064    1.2450 C.3       1 <0>         0.0035
      4 C4          2.0978   -0.1681    1.3088 C.2       1 <0>        -0.3307
      5 C5          3.0902   -1.0099    1.7041 C.2       1 <0>         0.4393
      6 N1          4.3813   -0.5488    1.7506 N.pl3     1 <0>        -0.6551
      7 C6          4.6627    0.7355    1.3987 C.2       1 <0>         0.6569
      8 N2          3.7122    1.5577    1.0096 N.2       1 <0>        -0.6358
      9 C7          2.4333    1.1553    0.9499 C.2       1 <0>         0.5462
     10 O1          1.5621    1.9321    0.5860 O.2       1 <0>        -0.5173
     11 N3          5.9575    1.1793    1.4502 N.pl3     1 <0>        -0.8263
     12 N4          2.8266   -2.3149    2.0523 N.pl3     1 <0>        -0.7323
     13 C8          1.4370   -2.7250    2.2954 C.3       1 <0>         0.1300
     14 C9          0.5708   -2.1317    1.1759 C.3       1 <0>        -0.1050
     15 C10        -0.8829   -2.5699    1.3646 C.3       1 <0>        -0.1095
     16 C11        -0.9884   -4.0840    1.1713 C.3       1 <0>        -0.0768
     17 C12        -2.4202   -4.5156    1.3572 C.ar      1 <0>        -0.0775
     18 C13        -2.8747   -4.8711    2.6147 C.ar      1 <0>        -0.1290
     19 C14        -4.1843   -5.2672    2.7917 C.ar      1 <0>        -0.0644
     20 C15        -5.0513   -5.3088    1.6987 C.ar      1 <0>        -0.1106
     21 C16        -4.5864   -4.9489    0.4328 C.ar      1 <0>        -0.0819
     22 C17        -3.2760   -4.5493    0.2705 C.ar      1 <0>        -0.1228
     23 C18        -6.4559   -5.7327    1.8810 C.2       1 <0>         0.5429
     24 O2         -6.8579   -6.0459    2.9845 O.2       1 <0>        -0.5537
     25 N5         -7.2907   -5.7718    0.8236 N.am      1 <0>        -0.6750
     26 C19        -8.6825   -6.1919    1.0042 C.3       1 <0>         0.0735
     27 C20        -9.5457   -5.5870   -0.1048 C.3       1 <0>        -0.0824
     28 C21        -9.5614   -4.0635    0.0347 C.3       1 <0>        -0.1773
     29 C22       -10.4117   -3.4677   -1.0576 C.2       1 <0>         0.4912
     30 O3        -10.9548   -4.1944   -1.8721 O.co2     1 <0>        -0.6979
     31 O4        -10.5565   -2.2591   -1.1267 O.co2     1 <0>        -0.7189
     32 C23        -8.7656   -7.6953    0.9419 C.2       1 <0>         0.4986
     33 O5         -9.6273   -8.2848    1.5716 O.co2     1 <0>        -0.7010
     34 O6         -7.9711   -8.3221    0.2620 O.co2     1 <0>        -0.6990
     35 H1          0.8592   -1.4705   -1.3230 H         1 <0>         0.0441
     36 H2          0.3320    0.0277   -2.1266 H         1 <0>         0.0468
     37 H3          1.8212    0.0172   -1.1517 H         1 <0>         0.0436
     38 H4         -0.0285    1.0814    0.0970 H         1 <0>         0.1010
     39 H5         -1.0131   -0.3891   -0.0943 H         1 <0>         0.0596
     40 H6          0.1390   -0.2546    2.1353 H         1 <0>         0.0715
     41 H7          6.6647    0.5799    1.7356 H         1 <0>         0.4083
     42 H8          6.1672    2.0931    1.2012 H         1 <0>         0.4301
     43 H9          3.5495   -2.9562    2.1358 H         1 <0>         0.4010
     44 H10         1.3652   -3.8126    2.2810 H         1 <0>         0.0935
     45 H11         1.1034   -2.3449    3.2609 H         1 <0>         0.0708
     46 H12         0.9367   -2.4762    0.2087 H         1 <0>         0.0844
     47 H13        -1.2138   -2.3081    2.3696 H         1 <0>         0.0693
     48 H14        -1.5125   -2.0653    0.6318 H         1 <0>         0.0792
     49 H15        -0.6575   -4.3459    0.1663 H         1 <0>         0.0713
     50 H16        -0.3587   -4.5886    1.9041 H         1 <0>         0.0682
     51 H17        -2.2026   -4.8388    3.4595 H         1 <0>         0.1206
     52 H18        -4.5377   -5.5447    3.7738 H         1 <0>         0.1329
     53 H19        -5.2523   -4.9790   -0.4170 H         1 <0>         0.1294
     54 H20        -2.9162   -4.2663   -0.7077 H         1 <0>         0.1237
     55 H21        -6.9699   -5.5218   -0.0571 H         1 <0>         0.3915
     56 H22        -9.0429   -5.8479    1.9736 H         1 <0>         0.0780
     57 H23        -9.1323   -5.8587   -1.0761 H         1 <0>         0.0602
     58 H24       -10.5630   -5.9698   -0.0230 H         1 <0>         0.0727
     59 H25        -9.9748   -3.7918    1.0060 H         1 <0>         0.0527
     60 H26        -8.5441   -3.6806   -0.0471 H         1 <0>         0.0511
     61 H27         5.0958   -1.1397    2.0353 H         1 <0>         0.4087
@<TRIPOS>BOND
     1    1    2 1
     2    1   35 1
     3    1   36 1
     4    1   37 1
     5    2    3 1
     6    2   38 1
     7    2   39 1
     8    3   14 1
     9    3    4 1
    10    3   40 1
    11    4    9 1
    12    4    5 2
    13    5    6 1
    14    5   12 1
    15    6    7 1
    16    6   61 1
    17    7    8 2
    18    7   11 1
    19    8    9 1
    20    9   10 2
    21   11   41 1
    22   11   42 1
    23   12   13 1
    24   12   43 1
    25   13   14 1
    26   13   44 1
    27   13   45 1
    28   14   15 1
    29   14   46 1
    30   15   16 1
    31   15   47 1
    32   15   48 1
    33   16   17 1
    34   16   49 1
    35   16   50 1
    36   17   22 ar
    37   17   18 ar
    38   18   19 ar
    39   18   51 1
    40   19   20 ar
    41   19   52 1
    42   20   21 ar
    43   20   23 1
    44   21   22 ar
    45   21   53 1
    46   22   54 1
    47   23   24 2
    48   23   25 am
    49   25   26 1
    50   25   55 1
    51   26   27 1
    52   26   32 1
    53   26   56 1
    54   27   28 1
    55   27   57 1
    56   27   58 1
    57   28   29 1
    58   28   59 1
    59   28   60 1
    60   29   30 2
    61   29   31 1
    62   32   33 2
    63   32   34 1
@<TRIPOS>MOLECULE
CHEMBL267890__8
   61    63     0     0     0
SMALL
USER_CHARGES

@<TRIPOS>ATOM
      1 C1          0.7502   -0.5773   -1.2032 C.3       1 <0>        -0.1349
      2 C2          0.0021   -0.0041    0.0020 C.3       1 <0>        -0.1287
      3 C3         -1.4651   -0.4339   -0.0569 C.3       1 <0>         0.0097
      4 C4         -2.0507   -0.0252   -1.3805 C.2       1 <0>        -0.3777
      5 C5         -2.9280   -0.8402   -2.0730 C.2       1 <0>         0.4801
      6 N1         -3.4297   -0.4317   -3.2466 N.2       1 <0>        -0.6229
      7 C6         -3.0988    0.7335   -3.7604 C.2       1 <0>         0.6571
      8 N2         -2.2354    1.5691   -3.1213 N.am      1 <0>        -0.6630
      9 C7         -1.7027    1.2130   -1.9342 C.2       1 <0>         0.5560
     10 O1         -0.9300    1.9580   -1.3522 O.2       1 <0>        -0.5409
     11 N3         -3.6336    1.1129   -4.9626 N.pl3     1 <0>        -0.8247
     12 N4         -3.2921   -2.0765   -1.5739 N.pl3     1 <0>        -0.7070
     13 C8         -2.9952   -2.3957   -0.1712 C.3       1 <0>         0.1238
     14 C9         -1.5557   -1.9504    0.1192 C.3       1 <0>        -0.1006
     15 C10        -1.1831   -2.3233    1.5555 C.3       1 <0>        -0.1093
     16 C11        -1.1533   -3.8466    1.6956 C.3       1 <0>        -0.0773
     17 C12        -0.7863   -4.2138    3.1103 C.ar      1 <0>        -0.0770
     18 C13         0.5430   -4.3813    3.4556 C.ar      1 <0>        -0.1281
     19 C14         0.8858   -4.7175    4.7490 C.ar      1 <0>        -0.0642
     20 C15        -0.1118   -4.8887    5.7100 C.ar      1 <0>        -0.1096
     21 C16        -1.4509   -4.7183    5.3550 C.ar      1 <0>        -0.0830
     22 C17        -1.7797   -4.3766    4.0594 C.ar      1 <0>        -0.1241
     23 C18         0.2482   -5.2495    7.0978 C.2       1 <0>         0.5477
     24 O2          1.4152   -5.3976    7.4040 O.2       1 <0>        -0.5558
     25 N5         -0.7175   -5.4141    8.0234 N.am      1 <0>        -0.6747
     26 C19        -0.3607   -5.7716    9.3986 C.3       1 <0>         0.0725
     27 C20        -1.5393   -6.4875   10.0616 C.3       1 <0>        -0.0811
     28 C21        -1.7932   -7.8181    9.3503 C.3       1 <0>        -0.1775
     29 C22        -2.9540   -8.5232   10.0033 C.2       1 <0>         0.4911
     30 O3         -3.5252   -8.0091   10.9498 O.co2     1 <0>        -0.6973
     31 O4         -3.3219   -9.6078    9.5851 O.co2     1 <0>        -0.7201
     32 C23        -0.0320   -4.5216   10.1734 C.2       1 <0>         0.4969
     33 O5         -0.2633   -3.4263    9.6902 O.co2     1 <0>        -0.6976
     34 O6          0.4652   -4.6054   11.2835 O.co2     1 <0>        -0.7009
     35 H1          1.7723   -0.1985   -1.2102 H         1 <0>         0.0432
     36 H2          0.7663   -1.6651   -1.1371 H         1 <0>         0.0458
     37 H3          0.2450   -0.2765   -2.1211 H         1 <0>         0.0423
     38 H4          0.4535   -0.3776    0.9211 H         1 <0>         0.0583
     39 H5          0.0629    1.0841   -0.0165 H         1 <0>         0.0946
     40 H6         -2.0170    0.0560    0.7454 H         1 <0>         0.0662
     41 H7         -4.2497    0.5247   -5.4266 H         1 <0>         0.4267
     42 H8         -3.3963    1.9699   -5.3502 H         1 <0>         0.4136
     43 H9         -3.7377   -2.7243   -2.1420 H         1 <0>         0.4065
     44 H10        -3.6855   -1.8624    0.4824 H         1 <0>         0.0694
     45 H11        -3.0885   -3.4696   -0.0096 H         1 <0>         0.0916
     46 H12        -0.8744   -2.4404   -0.5764 H         1 <0>         0.0818
     47 H13        -0.1998   -1.9173    1.7928 H         1 <0>         0.0759
     48 H14        -1.9222   -1.9097    2.2416 H         1 <0>         0.0699
     49 H15        -2.1366   -4.2526    1.4582 H         1 <0>         0.0704
     50 H16        -0.4142   -4.2602    1.0094 H         1 <0>         0.0702
     51 H17         1.3140   -4.2488    2.7110 H         1 <0>         0.1211
     52 H18         1.9238   -4.8482    5.0172 H         1 <0>         0.1326
     53 H19        -2.2276   -4.8494    6.0939 H         1 <0>         0.1283
     54 H20        -2.8152   -4.2401    3.7845 H         1 <0>         0.1228
     55 H21        -1.6487   -5.2959    7.7791 H         1 <0>         0.3899
     56 H22         0.5066   -6.4318    9.3890 H         1 <0>         0.0782
     57 H23        -1.3076   -6.6744   11.1101 H         1 <0>         0.0771
     58 H24        -2.4296   -5.8626    9.9920 H         1 <0>         0.0564
     59 H25        -2.0249   -7.6312    8.3018 H         1 <0>         0.0505
     60 H26        -0.9028   -8.4430    9.4199 H         1 <0>         0.0526
     61 H27        -2.0029    2.4223   -3.5199 H         1 <0>         0.4072
@<TRIPOS>BOND
     1    1    2 1
     2    1   35 1
     3    1   36 1
     4    1   37 1
     5    2    3 1
     6    2   38 1
     7    2   39 1
     8    3   14 1
     9    3    4 1
    10    3   40 1
    11    4    9 1
    12    4    5 2
    13    5    6 1
    14    5   12 1
    15    6    7 2
    16    7    8 1
    17    7   11 1
    18    8    9 am
    19    8   61 1
    20    9   10 2
    21   11   41 1
    22   11   42 1
    23   12   13 1
    24   12   43 1
    25   13   14 1
    26   13   44 1
    27   13   45 1
    28   14   15 1
    29   14   46 1
    30   15   16 1
    31   15   47 1
    32   15   48 1
    33   16   17 1
    34   16   49 1
    35   16   50 1
    36   17   22 ar
    37   17   18 ar
    38   18   19 ar
    39   18   51 1
    40   19   20 ar
    41   19   52 1
    42   20   21 ar
    43   20   23 1
    44   21   22 ar
    45   21   53 1
    46   22   54 1
    47   23   24 2
    48   23   25 am
    49   25   26 1
    50   25   55 1
    51   26   27 1
    52   26   32 1
    53   26   56 1
    54   27   28 1
    55   27   57 1
    56   27   58 1
    57   28   29 1
    58   28   59 1
    59   28   60 1
    60   29   30 2
    61   29   31 1
    62   32   33 2
    63   32   34 1
@<TRIPOS>MOLECULE
CHEMBL267890__9
   61    63     0     0     0
SMALL
USER_CHARGES

@<TRIPOS>ATOM
      1 C1         -1.4015   -0.6116   -0.0406 C.3       1 <0>        -0.1358
      2 C2          0.0021   -0.0041    0.0020 C.3       1 <0>        -0.1287
      3 C3          0.6951   -0.4121    1.3036 C.3       1 <0>         0.0032
      4 C4         -0.1684   -0.0198    2.4712 C.2       1 <0>        -0.3320
      5 C5         -0.3073   -0.8175    3.5640 C.2       1 <0>         0.4402
      6 N1         -1.1019   -0.4006    4.6015 N.pl3     1 <0>        -0.6549
      7 C6         -1.7469    0.7958    4.5320 C.2       1 <0>         0.6571
      8 N2         -1.6247    1.5738    3.4781 N.2       1 <0>        -0.6364
      9 C7         -0.8570    1.2122    2.4385 C.2       1 <0>         0.5468
     10 O1         -0.7550    1.9465    1.4663 O.2       1 <0>        -0.5189
     11 N3         -2.5371    1.1965    5.5766 N.pl3     1 <0>        -0.8262
     12 N4          0.3276   -2.0356    3.6473 N.pl3     1 <0>        -0.7318
     13 C8          1.4019   -2.3503    2.6960 C.3       1 <0>         0.1291
     14 C9          0.9307   -1.9233    1.2992 C.3       1 <0>        -0.1038
     15 C10         2.0040   -2.2725    0.2663 C.3       1 <0>        -0.1099
     16 C11         2.1488   -3.7929    0.1753 C.3       1 <0>        -0.0765
     17 C12         3.2060   -4.1369   -0.8421 C.ar      1 <0>        -0.0782
     18 C13         2.8533   -4.3168   -2.1678 C.ar      1 <0>        -0.1276
     19 C14         3.8162   -4.6319   -3.1042 C.ar      1 <0>        -0.0639
     20 C15         5.1486   -4.7691   -2.7116 C.ar      1 <0>        -0.1088
     21 C16         5.4976   -4.5862   -1.3726 C.ar      1 <0>        -0.0831
     22 C17         4.5258   -4.2659   -0.4473 C.ar      1 <0>        -0.1242
     23 C18         6.1856   -5.1070   -3.7097 C.2       1 <0>         0.5474
     24 O2          5.8787   -5.2661   -4.8750 O.2       1 <0>        -0.5552
     25 N5          7.4713   -5.2388   -3.3274 N.am      1 <0>        -0.6746
     26 C19         8.4989   -5.5737   -4.3163 C.3       1 <0>         0.0724
     27 C20         9.6752   -6.2587   -3.6177 C.3       1 <0>        -0.0811
     28 C21         9.2156   -7.5995   -3.0416 C.3       1 <0>        -0.1774
     29 C22        10.3741   -8.2742   -2.3534 C.2       1 <0>         0.4911
     30 O3         11.4662   -7.7328   -2.3262 O.co2     1 <0>        -0.6972
     31 O4         10.2193   -9.3614   -1.8239 O.co2     1 <0>        -0.7202
     32 C23         8.9789   -4.3132   -4.9886 C.2       1 <0>         0.4969
     33 O5          8.6461   -3.2247   -4.5517 O.co2     1 <0>        -0.6974
     34 O6          9.6999   -4.3820   -5.9693 O.co2     1 <0>        -0.7006
     35 H1         -1.9508   -0.3205    0.8547 H         1 <0>         0.0443
     36 H2         -1.9277   -0.2489   -0.9236 H         1 <0>         0.0455
     37 H3         -1.3260   -1.6981   -0.0834 H         1 <0>         0.0434
     38 H4          0.5811   -0.3671   -0.8471 H         1 <0>         0.0589
     39 H5         -0.0707    1.0825   -0.0458 H         1 <0>         0.1005
     40 H6          1.6533    0.1021    1.3785 H         1 <0>         0.0721
     41 H7         -2.6332    0.6291    6.3574 H         1 <0>         0.4085
     42 H8         -3.0005    2.0476    5.5355 H         1 <0>         0.4300
     43 H9          0.0690   -2.6785    4.3261 H         1 <0>         0.4013
     44 H10         2.3050   -1.8022    2.9644 H         1 <0>         0.0720
     45 H11         1.6024   -3.4217    2.7067 H         1 <0>         0.0942
     46 H12         0.0017   -2.4377    1.0533 H         1 <0>         0.0831
     47 H13         1.7143   -1.8763   -0.7070 H         1 <0>         0.0779
     48 H14         2.9553   -1.8344    0.5684 H         1 <0>         0.0706
     49 H15         2.4385   -4.1892    1.1486 H         1 <0>         0.0691
     50 H16         1.1976   -4.2311   -0.1268 H         1 <0>         0.0701
     51 H17         1.8220   -4.2108   -2.4702 H         1 <0>         0.1214
     52 H18         3.5396   -4.7724   -4.1387 H         1 <0>         0.1330
     53 H19         6.5267   -4.6910   -1.0624 H         1 <0>         0.1284
     54 H20         4.7951   -4.1199    0.5884 H         1 <0>         0.1222
     55 H21         7.7162   -5.1119   -2.3974 H         1 <0>         0.3898
     56 H22         8.0784   -6.2465   -5.0637 H         1 <0>         0.0782
     57 H23        10.4765   -6.4278   -4.3369 H         1 <0>         0.0772
     58 H24        10.0392   -5.6223   -2.8110 H         1 <0>         0.0564
     59 H25         8.4142   -7.4304   -2.3224 H         1 <0>         0.0503
     60 H26         8.8515   -8.2358   -3.8482 H         1 <0>         0.0526
     61 H27        -1.2047   -0.9603    5.3870 H         1 <0>         0.4090
@<TRIPOS>BOND
     1    1    2 1
     2    1   35 1
     3    1   36 1
     4    1   37 1
     5    2    3 1
     6    2   38 1
     7    2   39 1
     8    3   14 1
     9    3    4 1
    10    3   40 1
    11    4    9 1
    12    4    5 2
    13    5    6 1
    14    5   12 1
    15    6    7 1
    16    6   61 1
    17    7    8 2
    18    7   11 1
    19    8    9 1
    20    9   10 2
    21   11   41 1
    22   11   42 1
    23   12   13 1
    24   12   43 1
    25   13   14 1
    26   13   44 1
    27   13   45 1
    28   14   15 1
    29   14   46 1
    30   15   16 1
    31   15   47 1
    32   15   48 1
    33   16   17 1
    34   16   49 1
    35   16   50 1
    36   17   22 ar
    37   17   18 ar
    38   18   19 ar
    39   18   51 1
    40   19   20 ar
    41   19   52 1
    42   20   21 ar
    43   20   23 1
    44   21   22 ar
    45   21   53 1
    46   22   54 1
    47   23   24 2
    48   23   25 am
    49   25   26 1
    50   25   55 1
    51   26   27 1
    52   26   32 1
    53   26   56 1
    54   27   28 1
    55   27   57 1
    56   27   58 1
    57   28   29 1
    58   28   59 1
    59   28   60 1
    60   29   30 2
    61   29   31 1
    62   32   33 2
    63   32   34 1
@<TRIPOS>MOLECULE
CHEMBL267890__10
   61    63     0     0     0
SMALL
USER_CHARGES

@<TRIPOS>ATOM
      1 C1          0.7502   -0.5773   -1.2032 C.3       1 <0>        -0.1349
      2 C2          0.0021   -0.0041    0.0020 C.3       1 <0>        -0.1285
      3 C3         -1.4651   -0.4339   -0.0569 C.3       1 <0>         0.0095
      4 C4         -2.0507   -0.0252   -1.3805 C.2       1 <0>        -0.3777
      5 C5         -2.9280   -0.8402   -2.0730 C.2       1 <0>         0.4801
      6 N1         -3.4297   -0.4317   -3.2466 N.2       1 <0>        -0.6230
      7 C6         -3.0988    0.7335   -3.7604 C.2       1 <0>         0.6572
      8 N2         -2.2354    1.5691   -3.1213 N.am      1 <0>        -0.6629
      9 C7         -1.7027    1.2130   -1.9342 C.2       1 <0>         0.5560
     10 O1         -0.9300    1.9580   -1.3522 O.2       1 <0>        -0.5408
     11 N3         -3.6336    1.1129   -4.9626 N.pl3     1 <0>        -0.8247
     12 N4         -3.2921   -2.0765   -1.5739 N.pl3     1 <0>        -0.7071
     13 C8         -2.9952   -2.3957   -0.1712 C.3       1 <0>         0.1238
     14 C9         -1.5557   -1.9504    0.1192 C.3       1 <0>        -0.1006
     15 C10        -1.1831   -2.3233    1.5555 C.3       1 <0>        -0.1092
     16 C11        -1.1533   -3.8466    1.6956 C.3       1 <0>        -0.0776
     17 C12        -0.7863   -4.2138    3.1103 C.ar      1 <0>        -0.0762
     18 C13         0.5430   -4.3813    3.4556 C.ar      1 <0>        -0.1281
     19 C14         0.8858   -4.7175    4.7490 C.ar      1 <0>        -0.0639
     20 C15        -0.1118   -4.8887    5.7100 C.ar      1 <0>        -0.1114
     21 C16        -1.4509   -4.7183    5.3550 C.ar      1 <0>        -0.0826
     22 C17        -1.7797   -4.3766    4.0594 C.ar      1 <0>        -0.1241
     23 C18         0.2482   -5.2495    7.0978 C.2       1 <0>         0.5430
     24 O2          1.4152   -5.3976    7.4040 O.2       1 <0>        -0.5535
     25 N5         -0.7175   -5.4141    8.0234 N.am      1 <0>        -0.6753
     26 C19        -0.3607   -5.7716    9.3986 C.3       1 <0>         0.0734
     27 C20        -1.4647   -5.3051   10.3496 C.3       1 <0>        -0.0823
     28 C21        -1.5385   -3.7769   10.3348 C.3       1 <0>        -0.1773
     29 C22        -2.6259   -3.3174   11.2715 C.2       1 <0>         0.4912
     30 O3         -3.2812   -4.1363   11.8933 O.co2     1 <0>        -0.6978
     31 O4         -2.8504   -2.1268   11.4076 O.co2     1 <0>        -0.7193
     32 C23        -0.2050   -7.2668    9.5047 C.2       1 <0>         0.4985
     33 O5          0.5726   -7.7428   10.3141 O.co2     1 <0>        -0.7010
     34 O6         -0.8567   -8.0004    8.7811 O.co2     1 <0>        -0.6989
     35 H1          1.7723   -0.1985   -1.2102 H         1 <0>         0.0431
     36 H2          0.7663   -1.6651   -1.1371 H         1 <0>         0.0458
     37 H3          0.2450   -0.2765   -2.1211 H         1 <0>         0.0424
     38 H4          0.4535   -0.3776    0.9211 H         1 <0>         0.0581
     39 H5          0.0629    1.0841   -0.0165 H         1 <0>         0.0947
     40 H6         -2.0170    0.0560    0.7454 H         1 <0>         0.0664
     41 H7         -4.2497    0.5247   -5.4266 H         1 <0>         0.4267
     42 H8         -3.3963    1.9699   -5.3502 H         1 <0>         0.4136
     43 H9         -3.7377   -2.7243   -2.1420 H         1 <0>         0.4064
     44 H10        -3.6855   -1.8624    0.4824 H         1 <0>         0.0696
     45 H11        -3.0885   -3.4696   -0.0096 H         1 <0>         0.0915
     46 H12        -0.8744   -2.4404   -0.5764 H         1 <0>         0.0818
     47 H13        -0.1998   -1.9173    1.7928 H         1 <0>         0.0758
     48 H14        -1.9222   -1.9097    2.2416 H         1 <0>         0.0700
     49 H15        -2.1366   -4.2526    1.4582 H         1 <0>         0.0705
     50 H16        -0.4142   -4.2602    1.0094 H         1 <0>         0.0703
     51 H17         1.3140   -4.2488    2.7110 H         1 <0>         0.1214
     52 H18         1.9238   -4.8482    5.0172 H         1 <0>         0.1328
     53 H19        -2.2276   -4.8494    6.0939 H         1 <0>         0.1290
     54 H20        -2.8152   -4.2401    3.7845 H         1 <0>         0.1231
     55 H21        -1.6487   -5.2959    7.7791 H         1 <0>         0.3913
     56 H22         0.5786   -5.2885    9.6675 H         1 <0>         0.0779
     57 H23        -2.4205   -5.7181   10.0272 H         1 <0>         0.0601
     58 H24        -1.2429   -5.6484   11.3601 H         1 <0>         0.0726
     59 H25        -0.5827   -3.3639   10.6572 H         1 <0>         0.0528
     60 H26        -1.7603   -3.4337    9.3243 H         1 <0>         0.0512
     61 H27        -2.0029    2.4223   -3.5199 H         1 <0>         0.4072
@<TRIPOS>BOND
     1    1    2 1
     2    1   35 1
     3    1   36 1
     4    1   37 1
     5    2    3 1
     6    2   38 1
     7    2   39 1
     8    3   14 1
     9    3    4 1
    10    3   40 1
    11    4    9 1
    12    4    5 2
    13    5    6 1
    14    5   12 1
    15    6    7 2
    16    7    8 1
    17    7   11 1
    18    8    9 am
    19    8   61 1
    20    9   10 2
    21   11   41 1
    22   11   42 1
    23   12   13 1
    24   12   43 1
    25   13   14 1
    26   13   44 1
    27   13   45 1
    28   14   15 1
    29   14   46 1
    30   15   16 1
    31   15   47 1
    32   15   48 1
    33   16   17 1
    34   16   49 1
    35   16   50 1
    36   17   22 ar
    37   17   18 ar
    38   18   19 ar
    39   18   51 1
    40   19   20 ar
    41   19   52 1
    42   20   21 ar
    43   20   23 1
    44   21   22 ar
    45   21   53 1
    46   22   54 1
    47   23   24 2
    48   23   25 am
    49   25   26 1
    50   25   55 1
    51   26   27 1
    52   26   32 1
    53   26   56 1
    54   27   28 1
    55   27   57 1
    56   27   58 1
    57   28   29 1
    58   28   59 1
    59   28   60 1
    60   29   30 2
    61   29   31 1
    62   32   33 2
    63   32   34 1
@<TRIPOS>MOLECULE
CHEMBL267890__11
   61    63     0     0     0
SMALL
USER_CHARGES

@<TRIPOS>ATOM
      1 C1         -1.4015   -0.6116   -0.0406 C.3       1 <0>        -0.1359
      2 C2          0.0021   -0.0041    0.0020 C.3       1 <0>        -0.1285
      3 C3          0.6951   -0.4121    1.3036 C.3       1 <0>         0.0030
      4 C4         -0.1684   -0.0198    2.4712 C.2       1 <0>        -0.3319
      5 C5         -0.3073   -0.8175    3.5640 C.2       1 <0>         0.4402
      6 N1         -1.1019   -0.4006    4.6015 N.pl3     1 <0>        -0.6549
      7 C6         -1.7469    0.7958    4.5320 C.2       1 <0>         0.6572
      8 N2         -1.6247    1.5738    3.4781 N.2       1 <0>        -0.6363
      9 C7         -0.8570    1.2122    2.4385 C.2       1 <0>         0.5468
     10 O1         -0.7550    1.9465    1.4663 O.2       1 <0>        -0.5189
     11 N3         -2.5371    1.1965    5.5766 N.pl3     1 <0>        -0.8262
     12 N4          0.3276   -2.0356    3.6473 N.pl3     1 <0>        -0.7318
     13 C8          1.4019   -2.3503    2.6960 C.3       1 <0>         0.1290
     14 C9          0.9307   -1.9233    1.2992 C.3       1 <0>        -0.1037
     15 C10         2.0040   -2.2725    0.2663 C.3       1 <0>        -0.1097
     16 C11         2.1488   -3.7929    0.1753 C.3       1 <0>        -0.0768
     17 C12         3.2060   -4.1369   -0.8421 C.ar      1 <0>        -0.0774
     18 C13         2.8533   -4.3168   -2.1678 C.ar      1 <0>        -0.1277
     19 C14         3.8162   -4.6319   -3.1042 C.ar      1 <0>        -0.0636
     20 C15         5.1486   -4.7691   -2.7116 C.ar      1 <0>        -0.1106
     21 C16         5.4976   -4.5862   -1.3726 C.ar      1 <0>        -0.0827
     22 C17         4.5258   -4.2659   -0.4473 C.ar      1 <0>        -0.1241
     23 C18         6.1856   -5.1070   -3.7097 C.2       1 <0>         0.5428
     24 O2          5.8787   -5.2661   -4.8750 O.2       1 <0>        -0.5529
     25 N5          7.4713   -5.2388   -3.3274 N.am      1 <0>        -0.6752
     26 C19         8.4989   -5.5737   -4.3163 C.3       1 <0>         0.0734
     27 C20         9.8594   -5.0719   -3.8281 C.3       1 <0>        -0.0822
     28 C21         9.8451   -3.5435   -3.7609 C.3       1 <0>        -0.1774
     29 C22        11.1851   -3.0492   -3.2800 C.2       1 <0>         0.4912
     30 O3         12.0695   -3.8457   -3.0156 O.co2     1 <0>        -0.6979
     31 O4         11.3848   -1.8530   -3.1555 O.co2     1 <0>        -0.7190
     32 C23         8.5512   -7.0685   -4.4999 C.2       1 <0>         0.4985
     33 O5          8.8821   -7.5395   -5.5748 O.co2     1 <0>        -0.7008
     34 O6          8.2626   -7.8070   -3.5737 O.co2     1 <0>        -0.6992
     35 H1         -1.9508   -0.3205    0.8547 H         1 <0>         0.0443
     36 H2         -1.9277   -0.2489   -0.9236 H         1 <0>         0.0454
     37 H3         -1.3260   -1.6981   -0.0834 H         1 <0>         0.0434
     38 H4          0.5811   -0.3671   -0.8471 H         1 <0>         0.0586
     39 H5         -0.0707    1.0825   -0.0458 H         1 <0>         0.1006
     40 H6          1.6533    0.1021    1.3785 H         1 <0>         0.0724
     41 H7         -2.6332    0.6291    6.3574 H         1 <0>         0.4084
     42 H8         -3.0005    2.0476    5.5355 H         1 <0>         0.4300
     43 H9          0.0690   -2.6785    4.3261 H         1 <0>         0.4012
     44 H10         2.3050   -1.8022    2.9644 H         1 <0>         0.0722
     45 H11         1.6024   -3.4217    2.7067 H         1 <0>         0.0941
     46 H12         0.0017   -2.4377    1.0533 H         1 <0>         0.0831
     47 H13         1.7143   -1.8763   -0.7070 H         1 <0>         0.0778
     48 H14         2.9553   -1.8344    0.5684 H         1 <0>         0.0708
     49 H15         2.4385   -4.1892    1.1486 H         1 <0>         0.0692
     50 H16         1.1976   -4.2311   -0.1268 H         1 <0>         0.0703
     51 H17         1.8220   -4.2108   -2.4702 H         1 <0>         0.1217
     52 H18         3.5396   -4.7724   -4.1387 H         1 <0>         0.1333
     53 H19         6.5267   -4.6910   -1.0624 H         1 <0>         0.1291
     54 H20         4.7951   -4.1199    0.5884 H         1 <0>         0.1226
     55 H21         7.7162   -5.1119   -2.3974 H         1 <0>         0.3912
     56 H22         8.2565   -5.0991   -5.2672 H         1 <0>         0.0781
     57 H23        10.0617   -5.4773   -2.8368 H         1 <0>         0.0600
     58 H24        10.6364   -5.3980   -4.5195 H         1 <0>         0.0728
     59 H25         9.6427   -3.1381   -4.7523 H         1 <0>         0.0529
     60 H26         9.0681   -3.2174   -3.0695 H         1 <0>         0.0510
     61 H27        -1.2047   -0.9603    5.3870 H         1 <0>         0.4090
@<TRIPOS>BOND
     1    1    2 1
     2    1   35 1
     3    1   36 1
     4    1   37 1
     5    2    3 1
     6    2   38 1
     7    2   39 1
     8    3   14 1
     9    3    4 1
    10    3   40 1
    11    4    9 1
    12    4    5 2
    13    5    6 1
    14    5   12 1
    15    6    7 1
    16    6   61 1
    17    7    8 2
    18    7   11 1
    19    8    9 1
    20    9   10 2
    21   11   41 1
    22   11   42 1
    23   12   13 1
    24   12   43 1
    25   13   14 1
    26   13   44 1
    27   13   45 1
    28   14   15 1
    29   14   46 1
    30   15   16 1
    31   15   47 1
    32   15   48 1
    33   16   17 1
    34   16   49 1
    35   16   50 1
    36   17   22 ar
    37   17   18 ar
    38   18   19 ar
    39   18   51 1
    40   19   20 ar
    41   19   52 1
    42   20   21 ar
    43   20   23 1
    44   21   22 ar
    45   21   53 1
    46   22   54 1
    47   23   24 2
    48   23   25 am
    49   25   26 1
    50   25   55 1
    51   26   27 1
    52   26   32 1
    53   26   56 1
    54   27   28 1
    55   27   57 1
    56   27   58 1
    57   28   29 1
    58   28   59 1
    59   28   60 1
    60   29   30 2
    61   29   31 1
    62   32   33 2
    63   32   34 1
@<TRIPOS>MOLECULE
CHEMBL267890__12
   61    63     0     0     0
SMALL
USER_CHARGES

@<TRIPOS>ATOM
      1 C1          0.6562   -0.2807    1.3572 C.3       1 <0>        -0.1513
      2 C2          0.0021   -0.0041    0.0020 C.3       1 <0>        -0.1392
      3 C3         -1.3882   -0.6419   -0.0329 C.3       1 <0>         0.0158
      4 C4         -2.0447   -0.3328   -1.3502 C.2       1 <0>        -0.3856
      5 C5         -2.8049   -1.2713   -2.0244 C.2       1 <0>         0.4879
      6 N1         -3.3771   -0.9489   -3.1926 N.2       1 <0>        -0.6228
      7 C6         -3.2252    0.2478   -3.7182 C.2       1 <0>         0.6605
      8 N2         -2.4824    1.2042   -3.0972 N.am      1 <0>        -0.6617
      9 C7         -1.8870    0.9382   -1.9164 C.2       1 <0>         0.5562
     10 O1         -1.2216    1.7914   -1.3507 O.2       1 <0>        -0.5452
     11 N3         -3.8262    0.5364   -4.9143 N.pl3     1 <0>        -0.8228
     12 N4         -2.9796   -2.5432   -1.5126 N.pl3     1 <0>        -0.7033
     13 C8         -2.6198   -2.8050   -0.1127 C.3       1 <0>         0.1273
     14 C9         -1.2561   -2.1541    0.1536 C.3       1 <0>        -0.1036
     15 C10        -0.2237   -2.7044   -0.8324 C.3       1 <0>        -0.1068
     16 C11        -0.0020   -4.1936   -0.5605 C.3       1 <0>        -0.0768
     17 C12         1.0149   -4.7356   -1.5317 C.ar      1 <0>        -0.0744
     18 C13         0.6004   -5.2495   -2.7476 C.ar      1 <0>        -0.1285
     19 C14         1.5262   -5.7472   -3.6412 C.ar      1 <0>        -0.0648
     20 C15         2.8835   -5.7315   -3.3164 C.ar      1 <0>        -0.1107
     21 C16         3.2949   -5.2116   -2.0881 C.ar      1 <0>        -0.0825
     22 C17         2.3594   -4.7119   -1.2059 C.ar      1 <0>        -0.1240
     23 C18         3.8812   -6.2636   -4.2690 C.2       1 <0>         0.5483
     24 O2          3.5199   -6.7161   -5.3377 O.2       1 <0>        -0.5567
     25 N5          5.1911   -6.2470   -3.9523 N.am      1 <0>        -0.6746
     26 C19         6.1796   -6.7743   -4.8962 C.3       1 <0>         0.0727
     27 C20         7.4277   -7.2200   -4.1317 C.3       1 <0>        -0.0812
     28 C21         7.0736   -8.3950   -3.2179 C.3       1 <0>        -0.1775
     29 C22         8.3030   -8.8340   -2.4649 C.2       1 <0>         0.4912
     30 O3          9.3640   -8.2602   -2.6426 O.co2     1 <0>        -0.6972
     31 O4          8.2365   -9.7629   -1.6780 O.co2     1 <0>        -0.7199
     32 C23         6.5531   -5.7000   -5.8849 C.2       1 <0>         0.4971
     33 O5          6.1863   -4.5514   -5.7045 O.co2     1 <0>        -0.6977
     34 O6          7.2220   -5.9795   -6.8652 O.co2     1 <0>        -0.7011
     35 H1          1.6778    0.0995    1.3519 H         1 <0>         0.0496
     36 H2          0.0877    0.2163    2.1433 H         1 <0>         0.0462
     37 H3          0.6692   -1.3548    1.5419 H         1 <0>         0.0521
     38 H4         -0.0881    1.0722   -0.1450 H         1 <0>         0.1022
     39 H5          0.6167   -0.4289   -0.7916 H         1 <0>         0.0595
     40 H6         -1.9941   -0.2304    0.7744 H         1 <0>         0.0607
     41 H7         -4.3576   -0.1382   -5.3654 H         1 <0>         0.4275
     42 H8         -3.7206    1.4155   -5.3104 H         1 <0>         0.4141
     43 H9         -3.3346   -3.2531   -2.0702 H         1 <0>         0.4078
     44 H10        -3.3704   -2.3716    0.5482 H         1 <0>         0.0643
     45 H11        -2.5548   -3.8798    0.0565 H         1 <0>         0.0893
     46 H12        -0.9411   -2.3703    1.1745 H         1 <0>         0.0886
     47 H13        -0.5873   -2.5712   -1.8512 H         1 <0>         0.0657
     48 H14         0.7176   -2.1686   -0.7096 H         1 <0>         0.0749
     49 H15         0.3616   -4.3268    0.4583 H         1 <0>         0.0701
     50 H16        -0.9433   -4.7294   -0.6833 H         1 <0>         0.0664
     51 H17        -0.4502   -5.2614   -2.9976 H         1 <0>         0.1183
     52 H18         1.2014   -6.1484   -4.5898 H         1 <0>         0.1316
     53 H19         4.3437   -5.1966   -1.8307 H         1 <0>         0.1283
     54 H20         2.6767   -4.3053   -0.2570 H         1 <0>         0.1231
     55 H21         5.4793   -5.8859   -3.0994 H         1 <0>         0.3900
     56 H22         5.7558   -7.6262   -5.4281 H         1 <0>         0.0781
     57 H23         8.1965   -7.5293   -4.8399 H         1 <0>         0.0772
     58 H24         7.8004   -6.3912   -3.5298 H         1 <0>         0.0565
     59 H25         6.3049   -8.0857   -2.5098 H         1 <0>         0.0505
     60 H26         6.7009   -9.2238   -3.8198 H         1 <0>         0.0525
     61 H27        -2.3811    2.0788   -3.5043 H         1 <0>         0.4080
@<TRIPOS>BOND
     1    1    2 1
     2    1   35 1
     3    1   36 1
     4    1   37 1
     5    2    3 1
     6    2   38 1
     7    2   39 1
     8    3   14 1
     9    3    4 1
    10    3   40 1
    11    4    9 1
    12    4    5 2
    13    5    6 1
    14    5   12 1
    15    6    7 2
    16    7    8 1
    17    7   11 1
    18    8    9 am
    19    8   61 1
    20    9   10 2
    21   11   41 1
    22   11   42 1
    23   12   13 1
    24   12   43 1
    25   13   14 1
    26   13   44 1
    27   13   45 1
    28   14   15 1
    29   14   46 1
    30   15   16 1
    31   15   47 1
    32   15   48 1
    33   16   17 1
    34   16   49 1
    35   16   50 1
    36   17   22 ar
    37   17   18 ar
    38   18   19 ar
    39   18   51 1
    40   19   20 ar
    41   19   52 1
    42   20   21 ar
    43   20   23 1
    44   21   22 ar
    45   21   53 1
    46   22   54 1
    47   23   24 2
    48   23   25 am
    49   25   26 1
    50   25   55 1
    51   26   27 1
    52   26   32 1
    53   26   56 1
    54   27   28 1
    55   27   57 1
    56   27   58 1
    57   28   29 1
    58   28   59 1
    59   28   60 1
    60   29   30 2
    61   29   31 1
    62   32   33 2
    63   32   34 1
@<TRIPOS>MOLECULE
CHEMBL267890__13
   61    63     0     0     0
SMALL
USER_CHARGES

@<TRIPOS>ATOM
      1 C1          0.8530   -0.2680   -1.2419 C.3       1 <0>        -0.1510
      2 C2          0.0021   -0.0041    0.0020 C.3       1 <0>        -0.1402
      3 C3          0.6827   -0.6207    1.2257 C.3       1 <0>         0.0094
      4 C4         -0.1374   -0.3268    2.4521 C.2       1 <0>        -0.3390
      5 C5         -0.3156   -1.2480    3.4367 C.2       1 <0>         0.4482
      6 N1         -1.0670   -0.9175    4.5357 N.pl3     1 <0>        -0.6543
      7 C6         -1.6309    0.3174    4.6334 C.2       1 <0>         0.6596
      8 N2         -1.4701    1.2151    3.6852 N.2       1 <0>        -0.6355
      9 C7         -0.7418    0.9412    2.5917 C.2       1 <0>         0.5471
     10 O1         -0.6031    1.7865    1.7194 O.2       1 <0>        -0.5234
     11 N3         -2.3788    0.6306    5.7373 N.pl3     1 <0>        -0.8247
     12 N4          0.2368   -2.5054    3.3500 N.pl3     1 <0>        -0.7280
     13 C8          1.2752   -2.7642    2.3436 C.3       1 <0>         0.1328
     14 C9          0.8160   -2.1308    1.0232 C.3       1 <0>        -0.1071
     15 C10        -0.5380   -2.7159    0.6166 C.3       1 <0>        -0.1075
     16 C11        -0.3750   -4.2026    0.2940 C.3       1 <0>        -0.0762
     17 C12        -1.7086   -4.7789   -0.1065 C.ar      1 <0>        -0.0756
     18 C13        -2.5466   -5.3106    0.8575 C.ar      1 <0>        -0.1300
     19 C14        -3.7688   -5.8398    0.4976 C.ar      1 <0>        -0.0652
     20 C15        -4.1592   -5.8378   -0.8424 C.ar      1 <0>        -0.1094
     21 C16        -3.3091   -5.2999   -1.8099 C.ar      1 <0>        -0.0814
     22 C17        -2.0920   -4.7688   -1.4358 C.ar      1 <0>        -0.1229
     23 C18        -5.4674   -6.4037   -1.2354 C.2       1 <0>         0.5478
     24 O2         -6.2055   -6.8719   -0.3907 O.2       1 <0>        -0.5568
     25 N5         -5.8415   -6.4003   -2.5302 N.am      1 <0>        -0.6739
     26 C19        -7.1377   -6.9610   -2.9196 C.3       1 <0>         0.0726
     27 C20        -7.0809   -7.4100   -4.3811 C.3       1 <0>        -0.0814
     28 C21        -6.0830   -8.5611   -4.5225 C.3       1 <0>        -0.1774
     29 C22        -6.0270   -9.0034   -5.9621 C.2       1 <0>         0.4912
     30 O3         -6.7209   -8.4492   -6.7975 O.co2     1 <0>        -0.6969
     31 O4         -5.2878   -9.9154   -6.2913 O.co2     1 <0>        -0.7200
     32 C23        -8.2077   -5.9122   -2.7575 C.2       1 <0>         0.4969
     33 O5         -7.8978   -4.7549   -2.5319 O.co2     1 <0>        -0.6972
     34 O6         -9.3834   -6.2211   -2.8521 O.co2     1 <0>        -0.7008
     35 H1          1.0301   -1.3390   -1.3404 H         1 <0>         0.0506
     36 H2          0.3282    0.0962   -2.1250 H         1 <0>         0.0511
     37 H3          1.8069    0.2507   -1.1463 H         1 <0>         0.0469
     38 H4         -0.1039    1.0709    0.1483 H         1 <0>         0.1087
     39 H5         -0.9830   -0.4517   -0.1299 H         1 <0>         0.0597
     40 H6          1.6742   -0.1840    1.3451 H         1 <0>         0.0669
     41 H7         -2.5028   -0.0253    6.4411 H         1 <0>         0.4092
     42 H8         -2.7843    1.5083    5.8152 H         1 <0>         0.4305
     43 H9         -0.0557   -3.2122    3.9465 H         1 <0>         0.4027
     44 H10         2.2166   -2.3152    2.6605 H         1 <0>         0.0671
     45 H11         1.4032   -3.8387    2.2130 H         1 <0>         0.0921
     46 H12         1.5526   -2.3320    0.2454 H         1 <0>         0.0916
     47 H13        -1.2460   -2.5976    1.4368 H         1 <0>         0.0635
     48 H14        -0.9107   -2.1919   -0.2636 H         1 <0>         0.0779
     49 H15         0.3331   -4.3209   -0.5262 H         1 <0>         0.0712
     50 H16        -0.0023   -4.7266    1.1742 H         1 <0>         0.0649
     51 H17        -2.2431   -5.3118    1.8940 H         1 <0>         0.1159
     52 H18        -4.4218   -6.2549    1.2510 H         1 <0>         0.1314
     53 H19        -3.6053   -5.2954   -2.8485 H         1 <0>         0.1292
     54 H20        -1.4352   -4.3482   -2.1829 H         1 <0>         0.1239
     55 H21        -5.2524   -6.0267   -3.2042 H         1 <0>         0.3902
     56 H22        -7.3687   -7.8168   -2.2853 H         1 <0>         0.0781
     57 H23        -8.0689   -7.7447   -4.6971 H         1 <0>         0.0774
     58 H24        -6.7632   -6.5750   -5.0056 H         1 <0>         0.0568
     59 H25        -5.0950   -8.2264   -4.2066 H         1 <0>         0.0502
     60 H26        -6.4007   -9.3961   -3.8980 H         1 <0>         0.0524
     61 H27        -1.1972   -1.5659    5.2453 H         1 <0>         0.4099
@<TRIPOS>BOND
     1    1    2 1
     2    1   35 1
     3    1   36 1
     4    1   37 1
     5    2    3 1
     6    2   38 1
     7    2   39 1
     8    3   14 1
     9    3    4 1
    10    3   40 1
    11    4    9 1
    12    4    5 2
    13    5    6 1
    14    5   12 1
    15    6    7 1
    16    6   61 1
    17    7    8 2
    18    7   11 1
    19    8    9 1
    20    9   10 2
    21   11   41 1
    22   11   42 1
    23   12   13 1
    24   12   43 1
    25   13   14 1
    26   13   44 1
    27   13   45 1
    28   14   15 1
    29   14   46 1
    30   15   16 1
    31   15   47 1
    32   15   48 1
    33   16   17 1
    34   16   49 1
    35   16   50 1
    36   17   22 ar
    37   17   18 ar
    38   18   19 ar
    39   18   51 1
    40   19   20 ar
    41   19   52 1
    42   20   21 ar
    43   20   23 1
    44   21   22 ar
    45   21   53 1
    46   22   54 1
    47   23   24 2
    48   23   25 am
    49   25   26 1
    50   25   55 1
    51   26   27 1
    52   26   32 1
    53   26   56 1
    54   27   28 1
    55   27   57 1
    56   27   58 1
    57   28   29 1
    58   28   59 1
    59   28   60 1
    60   29   30 2
    61   29   31 1
    62   32   33 2
    63   32   34 1
@<TRIPOS>MOLECULE
CHEMBL267890__14
   61    63     0     0     0
SMALL
USER_CHARGES

@<TRIPOS>ATOM
      1 C1          0.6562   -0.2807    1.3572 C.3       1 <0>        -0.1515
      2 C2          0.0021   -0.0041    0.0020 C.3       1 <0>        -0.1391
      3 C3         -1.3882   -0.6419   -0.0329 C.3       1 <0>         0.0156
      4 C4         -2.0447   -0.3328   -1.3502 C.2       1 <0>        -0.3854
      5 C5         -2.8049   -1.2713   -2.0244 C.2       1 <0>         0.4876
      6 N1         -3.3771   -0.9489   -3.1926 N.2       1 <0>        -0.6230
      7 C6         -3.2252    0.2478   -3.7182 C.2       1 <0>         0.6604
      8 N2         -2.4824    1.2042   -3.0972 N.am      1 <0>        -0.6618
      9 C7         -1.8870    0.9382   -1.9164 C.2       1 <0>         0.5560
     10 O1         -1.2216    1.7914   -1.3507 O.2       1 <0>        -0.5444
     11 N3         -3.8262    0.5364   -4.9143 N.pl3     1 <0>        -0.8229
     12 N4         -2.9796   -2.5432   -1.5126 N.pl3     1 <0>        -0.7033
     13 C8         -2.6198   -2.8050   -0.1127 C.3       1 <0>         0.1272
     14 C9         -1.2561   -2.1541    0.1536 C.3       1 <0>        -0.1035
     15 C10        -0.2237   -2.7044   -0.8324 C.3       1 <0>        -0.1067
     16 C11        -0.0020   -4.1936   -0.5605 C.3       1 <0>        -0.0770
     17 C12         1.0149   -4.7356   -1.5317 C.ar      1 <0>        -0.0736
     18 C13         0.6004   -5.2495   -2.7476 C.ar      1 <0>        -0.1286
     19 C14         1.5262   -5.7472   -3.6412 C.ar      1 <0>        -0.0645
     20 C15         2.8835   -5.7315   -3.3164 C.ar      1 <0>        -0.1125
     21 C16         3.2949   -5.2116   -2.0881 C.ar      1 <0>        -0.0821
     22 C17         2.3594   -4.7119   -1.2059 C.ar      1 <0>        -0.1239
     23 C18         3.8812   -6.2636   -4.2690 C.2       1 <0>         0.5435
     24 O2          3.5199   -6.7161   -5.3377 O.2       1 <0>        -0.5543
     25 N5          5.1911   -6.2470   -3.9523 N.am      1 <0>        -0.6752
     26 C19         6.1796   -6.7743   -4.8962 C.3       1 <0>         0.0737
     27 C20         7.5356   -6.1152   -4.6359 C.3       1 <0>        -0.0823
     28 C21         7.4423   -4.6189   -4.9413 C.3       1 <0>        -0.1772
     29 C22         8.7779   -3.9696   -4.6849 C.2       1 <0>         0.4912
     30 O3          9.7173   -4.6414   -4.2942 O.co2     1 <0>        -0.6974
     31 O4          8.9190   -2.7725   -4.8683 O.co2     1 <0>        -0.7193
     32 C23         6.3026   -8.2652   -4.7142 C.2       1 <0>         0.4984
     33 O5          6.5991   -8.9727   -5.6619 O.co2     1 <0>        -0.7012
     34 O6          6.1056   -8.7640   -3.6192 O.co2     1 <0>        -0.6986
     35 H1          1.6778    0.0995    1.3519 H         1 <0>         0.0500
     36 H2          0.0877    0.2163    2.1433 H         1 <0>         0.0462
     37 H3          0.6692   -1.3548    1.5419 H         1 <0>         0.0519
     38 H4         -0.0881    1.0722   -0.1450 H         1 <0>         0.1023
     39 H5          0.6167   -0.4289   -0.7916 H         1 <0>         0.0594
     40 H6         -1.9941   -0.2304    0.7744 H         1 <0>         0.0608
     41 H7         -4.3576   -0.1382   -5.3654 H         1 <0>         0.4274
     42 H8         -3.7206    1.4155   -5.3104 H         1 <0>         0.4141
     43 H9         -3.3346   -3.2531   -2.0702 H         1 <0>         0.4077
     44 H10        -3.3704   -2.3716    0.5482 H         1 <0>         0.0643
     45 H11        -2.5548   -3.8798    0.0565 H         1 <0>         0.0893
     46 H12        -0.9411   -2.3703    1.1745 H         1 <0>         0.0886
     47 H13        -0.5873   -2.5712   -1.8512 H         1 <0>         0.0656
     48 H14         0.7176   -2.1686   -0.7096 H         1 <0>         0.0751
     49 H15         0.3616   -4.3268    0.4583 H         1 <0>         0.0702
     50 H16        -0.9433   -4.7294   -0.6833 H         1 <0>         0.0666
     51 H17        -0.4502   -5.2614   -2.9976 H         1 <0>         0.1186
     52 H18         1.2014   -6.1484   -4.5898 H         1 <0>         0.1318
     53 H19         4.3437   -5.1966   -1.8307 H         1 <0>         0.1289
     54 H20         2.6767   -4.3053   -0.2570 H         1 <0>         0.1234
     55 H21         5.4793   -5.8859   -3.0994 H         1 <0>         0.3915
     56 H22         5.8601   -6.5579   -5.9156 H         1 <0>         0.0776
     57 H23         7.8136   -6.2562   -3.5915 H         1 <0>         0.0603
     58 H24         8.2901   -6.5706   -5.2774 H         1 <0>         0.0727
     59 H25         7.1643   -4.4778   -5.9858 H         1 <0>         0.0524
     60 H26         6.6878   -4.1635   -4.2998 H         1 <0>         0.0509
     61 H27        -2.3811    2.0788   -3.5043 H         1 <0>         0.4081
@<TRIPOS>BOND
     1    1    2 1
     2    1   35 1
     3    1   36 1
     4    1   37 1
     5    2    3 1
     6    2   38 1
     7    2   39 1
     8    3   14 1
     9    3    4 1
    10    3   40 1
    11    4    9 1
    12    4    5 2
    13    5    6 1
    14    5   12 1
    15    6    7 2
    16    7    8 1
    17    7   11 1
    18    8    9 am
    19    8   61 1
    20    9   10 2
    21   11   41 1
    22   11   42 1
    23   12   13 1
    24   12   43 1
    25   13   14 1
    26   13   44 1
    27   13   45 1
    28   14   15 1
    29   14   46 1
    30   15   16 1
    31   15   47 1
    32   15   48 1
    33   16   17 1
    34   16   49 1
    35   16   50 1
    36   17   22 ar
    37   17   18 ar
    38   18   19 ar
    39   18   51 1
    40   19   20 ar
    41   19   52 1
    42   20   21 ar
    43   20   23 1
    44   21   22 ar
    45   21   53 1
    46   22   54 1
    47   23   24 2
    48   23   25 am
    49   25   26 1
    50   25   55 1
    51   26   27 1
    52   26   32 1
    53   26   56 1
    54   27   28 1
    55   27   57 1
    56   27   58 1
    57   28   29 1
    58   28   59 1
    59   28   60 1
    60   29   30 2
    61   29   31 1
    62   32   33 2
    63   32   34 1
@<TRIPOS>MOLECULE
CHEMBL267890__15
   61    63     0     0     0
SMALL
USER_CHARGES

@<TRIPOS>ATOM
      1 C1          0.8530   -0.2680   -1.2419 C.3       1 <0>        -0.1512
      2 C2          0.0021   -0.0041    0.0020 C.3       1 <0>        -0.1401
      3 C3          0.6827   -0.6207    1.2257 C.3       1 <0>         0.0093
      4 C4         -0.1374   -0.3268    2.4521 C.2       1 <0>        -0.3388
      5 C5         -0.3156   -1.2480    3.4367 C.2       1 <0>         0.4479
      6 N1         -1.0670   -0.9175    4.5357 N.pl3     1 <0>        -0.6544
      7 C6         -1.6309    0.3174    4.6334 C.2       1 <0>         0.6593
      8 N2         -1.4701    1.2151    3.6852 N.2       1 <0>        -0.6353
      9 C7         -0.7418    0.9412    2.5917 C.2       1 <0>         0.5468
     10 O1         -0.6031    1.7865    1.7194 O.2       1 <0>        -0.5225
     11 N3         -2.3788    0.6306    5.7373 N.pl3     1 <0>        -0.8248
     12 N4          0.2368   -2.5054    3.3500 N.pl3     1 <0>        -0.7280
     13 C8          1.2752   -2.7642    2.3436 C.3       1 <0>         0.1328
     14 C9          0.8160   -2.1308    1.0232 C.3       1 <0>        -0.1070
     15 C10        -0.5380   -2.7159    0.6166 C.3       1 <0>        -0.1074
     16 C11        -0.3750   -4.2026    0.2940 C.3       1 <0>        -0.0765
     17 C12        -1.7086   -4.7789   -0.1065 C.ar      1 <0>        -0.0748
     18 C13        -2.5466   -5.3106    0.8575 C.ar      1 <0>        -0.1301
     19 C14        -3.7688   -5.8398    0.4976 C.ar      1 <0>        -0.0649
     20 C15        -4.1592   -5.8378   -0.8424 C.ar      1 <0>        -0.1112
     21 C16        -3.3091   -5.2999   -1.8099 C.ar      1 <0>        -0.0809
     22 C17        -2.0920   -4.7688   -1.4358 C.ar      1 <0>        -0.1228
     23 C18        -5.4674   -6.4037   -1.2354 C.2       1 <0>         0.5431
     24 O2         -6.2055   -6.8719   -0.3907 O.2       1 <0>        -0.5546
     25 N5         -5.8415   -6.4003   -2.5302 N.am      1 <0>        -0.6745
     26 C19        -7.1377   -6.9610   -2.9196 C.3       1 <0>         0.0735
     27 C20        -7.5994   -6.3171   -4.2285 C.3       1 <0>        -0.0824
     28 C21        -7.8553   -4.8259   -4.0008 C.3       1 <0>        -0.1773
     29 C22        -8.3101   -4.1917   -5.2900 C.2       1 <0>         0.4911
     30 O3         -8.4194   -4.8696   -6.2975 O.co2     1 <0>        -0.6976
     31 O4         -8.5687   -3.0008   -5.3255 O.co2     1 <0>        -0.7186
     32 C23        -7.0038   -8.4496   -3.1119 C.2       1 <0>         0.4985
     33 O5         -7.9562   -9.1801   -2.8978 O.co2     1 <0>        -0.7009
     34 O6         -5.9430   -8.9235   -3.4817 O.co2     1 <0>        -0.6988
     35 H1          1.0301   -1.3390   -1.3404 H         1 <0>         0.0504
     36 H2          0.3282    0.0962   -2.1250 H         1 <0>         0.0516
     37 H3          1.8069    0.2507   -1.1463 H         1 <0>         0.0469
     38 H4         -0.1039    1.0709    0.1483 H         1 <0>         0.1088
     39 H5         -0.9830   -0.4517   -0.1299 H         1 <0>         0.0597
     40 H6          1.6742   -0.1840    1.3451 H         1 <0>         0.0670
     41 H7         -2.5028   -0.0253    6.4411 H         1 <0>         0.4091
     42 H8         -2.7843    1.5083    5.8152 H         1 <0>         0.4305
     43 H9         -0.0557   -3.2122    3.9465 H         1 <0>         0.4026
     44 H10         2.2166   -2.3152    2.6605 H         1 <0>         0.0671
     45 H11         1.4032   -3.8387    2.2130 H         1 <0>         0.0921
     46 H12         1.5526   -2.3320    0.2454 H         1 <0>         0.0916
     47 H13        -1.2460   -2.5976    1.4368 H         1 <0>         0.0634
     48 H14        -0.9107   -2.1919   -0.2636 H         1 <0>         0.0781
     49 H15         0.3331   -4.3209   -0.5262 H         1 <0>         0.0713
     50 H16        -0.0023   -4.7266    1.1742 H         1 <0>         0.0651
     51 H17        -2.2431   -5.3118    1.8940 H         1 <0>         0.1162
     52 H18        -4.4218   -6.2549    1.2510 H         1 <0>         0.1316
     53 H19        -3.6053   -5.2954   -2.8485 H         1 <0>         0.1298
     54 H20        -1.4352   -4.3482   -2.1829 H         1 <0>         0.1242
     55 H21        -5.2524   -6.0267   -3.2042 H         1 <0>         0.3916
     56 H22        -7.8701   -6.7601   -2.1377 H         1 <0>         0.0777
     57 H23        -6.8266   -6.4415   -4.9870 H         1 <0>         0.0604
     58 H24        -8.5189   -6.7964   -4.5646 H         1 <0>         0.0729
     59 H25        -8.6282   -4.7016   -3.2423 H         1 <0>         0.0525
     60 H26        -6.9358   -4.3467   -3.6647 H         1 <0>         0.0509
     61 H27        -1.1972   -1.5659    5.2453 H         1 <0>         0.4098
@<TRIPOS>BOND
     1    1    2 1
     2    1   35 1
     3    1   36 1
     4    1   37 1
     5    2    3 1
     6    2   38 1
     7    2   39 1
     8    3   14 1
     9    3    4 1
    10    3   40 1
    11    4    9 1
    12    4    5 2
    13    5    6 1
    14    5   12 1
    15    6    7 1
    16    6   61 1
    17    7    8 2
    18    7   11 1
    19    8    9 1
    20    9   10 2
    21   11   41 1
    22   11   42 1
    23   12   13 1
    24   12   43 1
    25   13   14 1
    26   13   44 1
    27   13   45 1
    28   14   15 1
    29   14   46 1
    30   15   16 1
    31   15   47 1
    32   15   48 1
    33   16   17 1
    34   16   49 1
    35   16   50 1
    36   17   22 ar
    37   17   18 ar
    38   18   19 ar
    39   18   51 1
    40   19   20 ar
    41   19   52 1
    42   20   21 ar
    43   20   23 1
    44   21   22 ar
    45   21   53 1
    46   22   54 1
    47   23   24 2
    48   23   25 am
    49   25   26 1
    50   25   55 1
    51   26   27 1
    52   26   32 1
    53   26   56 1
    54   27   28 1
    55   27   57 1
    56   27   58 1
    57   28   29 1
    58   28   59 1
    59   28   60 1
    60   29   30 2
    61   29   31 1
    62   32   33 2
    63   32   34 1
@<TRIPOS>MOLECULE
CHEMBL315076
   53    55     0     0     0
SMALL
USER_CHARGES

@<TRIPOS>ATOM
      1 C1         -0.0167    1.3794    0.0096 C.ar      1 <0>        -0.1258
      2 C2          1.1667    2.0884    0.0021 C.ar      1 <0>        -0.0640
      3 C3          2.3848    1.4070   -0.0132 C.ar      1 <0>        -0.1088
      4 C4          2.3966    0.0113   -0.0208 C.ar      1 <0>        -0.0837
      5 C5          1.2061   -0.6856   -0.0132 C.ar      1 <0>        -0.1237
      6 C6          0.0021   -0.0041    0.0020 C.ar      1 <0>        -0.0775
      7 C7         -1.2946   -0.7719    0.0103 C.3       1 <0>        -0.0780
      8 C8         -1.7472   -1.0241   -1.4293 C.3       1 <0>        -0.0924
      9 C9         -3.0637   -1.8037   -1.4209 C.3       1 <0>        -0.1051
     10 C10        -3.4870   -2.1284   -2.8621 C.3       1 <0>         0.1258
     11 N1         -4.6901   -2.9541   -2.8247 N.pl3     1 <0>        -0.7084
     12 C11        -5.8390   -2.5859   -2.1566 C.2       1 <0>         0.4815
     13 C12        -5.8514   -1.6328   -1.1524 C.2       1 <0>        -0.3937
     14 C13        -7.0590   -1.3299   -0.5074 C.2       1 <0>         0.5747
     15 N2         -8.1806   -1.9752   -0.8906 N.am      1 <0>        -0.6564
     16 C14        -8.1235   -2.8949   -1.8924 C.2       1 <0>         0.6603
     17 N3         -6.9953   -3.1840   -2.4981 N.2       1 <0>        -0.6152
     18 N4         -9.2736   -3.5360   -2.2784 N.pl3     1 <0>        -0.8225
     19 O1         -7.0950   -0.4973    0.3858 O.2       1 <0>        -0.5288
     20 S1         -4.3781   -0.7881   -0.6798 S.3       1 <0>        -0.0452
     21 C15         3.6569    2.1603   -0.0218 C.2       1 <0>         0.5477
     22 O2          3.6435    3.3757   -0.0155 O.2       1 <0>        -0.5552
     23 N5          4.8314    1.4994   -0.0366 N.am      1 <0>        -0.6749
     24 C16         6.0919    2.2459   -0.0451 C.3       1 <0>         0.0725
     25 C17         7.1909    1.3839   -0.6698 C.3       1 <0>        -0.0811
     26 C18         6.8626    1.1271   -2.1419 C.3       1 <0>        -0.1774
     27 C19         7.9450    0.2781   -2.7573 C.2       1 <0>         0.4911
     28 O3          8.8913   -0.0876   -2.0810 O.co2     1 <0>        -0.6974
     29 O4          7.8745   -0.0430   -3.9313 O.co2     1 <0>        -0.7201
     30 C20         6.4748    2.6012    1.3685 C.2       1 <0>         0.4969
     31 O5          5.8674    2.1124    2.3058 O.co2     1 <0>        -0.6976
     32 O6          7.3921    3.3775    1.5748 O.co2     1 <0>        -0.7010
     33 H1         -0.9598    1.9054    0.0260 H         1 <0>         0.1234
     34 H2          1.1508    3.1682    0.0077 H         1 <0>         0.1334
     35 H3          3.3358   -0.5219   -0.0330 H         1 <0>         0.1285
     36 H4          1.2138   -1.7656   -0.0191 H         1 <0>         0.1229
     37 H5         -1.1489   -1.7256    0.5176 H         1 <0>         0.0739
     38 H6         -2.0557   -0.1941    0.5345 H         1 <0>         0.0793
     39 H7         -1.8929   -0.0704   -1.9367 H         1 <0>         0.0808
     40 H8         -0.9861   -1.6019   -1.9536 H         1 <0>         0.0852
     41 H9         -2.9438   -2.7260   -0.8526 H         1 <0>         0.0987
     42 H10        -3.6958   -1.2029   -3.3988 H         1 <0>         0.0833
     43 H11        -2.6866   -2.6716   -3.3644 H         1 <0>         0.1050
     44 H12        -4.6810   -3.8038   -3.2925 H         1 <0>         0.4085
     45 H13       -10.1137   -3.3317   -1.8387 H         1 <0>         0.4148
     46 H14        -9.2465   -4.1935   -2.9910 H         1 <0>         0.4276
     47 H15         4.8421    0.5294   -0.0416 H         1 <0>         0.3898
     48 H16         5.9699    3.1583   -0.6287 H         1 <0>         0.0783
     49 H17         8.1462    1.9034   -0.5958 H         1 <0>         0.0771
     50 H18         7.2523    0.4333   -0.1400 H         1 <0>         0.0564
     51 H19         5.9072    0.6076   -2.2159 H         1 <0>         0.0505
     52 H20         6.8012    2.0777   -2.6717 H         1 <0>         0.0526
     53 H21        -9.0251   -1.7843   -0.4531 H         1 <0>         0.4132
@<TRIPOS>BOND
     1    1    6 ar
     2    1    2 ar
     3    1   33 1
     4    2    3 ar
     5    2   34 1
     6    3    4 ar
     7    3   21 1
     8    4    5 ar
     9    4   35 1
    10    5    6 ar
    11    5   36 1
    12    6    7 1
    13    7    8 1
    14    7   37 1
    15    7   38 1
    16    8    9 1
    17    8   39 1
    18    8   40 1
    19    9   20 1
    20    9   10 1
    21    9   41 1
    22   10   11 1
    23   10   42 1
    24   10   43 1
    25   11   12 1
    26   11   44 1
    27   12   17 1
    28   12   13 2
    29   13   14 1
    30   13   20 1
    31   14   15 am
    32   14   19 2
    33   15   16 1
    34   15   53 1
    35   16   17 2
    36   16   18 1
    37   18   45 1
    38   18   46 1
    39   21   22 2
    40   21   23 am
    41   23   24 1
    42   23   47 1
    43   24   25 1
    44   24   30 1
    45   24   48 1
    46   25   26 1
    47   25   49 1
    48   25   50 1
    49   26   27 1
    50   26   51 1
    51   26   52 1
    52   27   28 2
    53   27   29 1
    54   30   31 2
    55   30   32 1
@<TRIPOS>MOLECULE
CHEMBL315076__1
   53    55     0     0     0
SMALL
USER_CHARGES

@<TRIPOS>ATOM
      1 C1         -0.0167    1.3794    0.0096 C.ar      1 <0>        -0.1254
      2 C2          1.1667    2.0884    0.0021 C.ar      1 <0>        -0.0637
      3 C3          2.3848    1.4070   -0.0132 C.ar      1 <0>        -0.1081
      4 C4          2.3966    0.0113   -0.0208 C.ar      1 <0>        -0.0839
      5 C5          1.2061   -0.6856   -0.0132 C.ar      1 <0>        -0.1237
      6 C6          0.0021   -0.0041    0.0020 C.ar      1 <0>        -0.0783
      7 C7         -1.2946   -0.7719    0.0103 C.3       1 <0>        -0.0785
      8 C8         -1.7472   -1.0241   -1.4293 C.3       1 <0>        -0.0925
      9 C9         -3.0637   -1.8037   -1.4209 C.3       1 <0>        -0.1129
     10 C10        -3.4887   -2.1268   -2.8625 C.3       1 <0>         0.1306
     11 N1         -4.7016   -2.9381   -2.8218 N.pl3     1 <0>        -0.7320
     12 C11        -5.8409   -2.5613   -2.1532 C.2       1 <0>         0.4369
     13 C12        -5.8526   -1.6280   -1.1609 C.2       1 <0>        -0.3439
     14 C13        -7.0697   -1.3219   -0.5125 C.2       1 <0>         0.5606
     15 N2         -8.1981   -1.9412   -0.8907 N.2       1 <0>        -0.6248
     16 C14        -8.1828   -2.8324   -1.8585 C.2       1 <0>         0.6604
     17 N3         -7.0329   -3.1588   -2.5027 N.pl3     1 <0>        -0.6491
     18 N4         -9.3538   -3.4452   -2.2246 N.pl3     1 <0>        -0.8238
     19 O1         -7.0945   -0.4964    0.3898 O.2       1 <0>        -0.5082
     20 S1         -4.3785   -0.7884   -0.6798 S.3       1 <0>        -0.0274
     21 C15         3.6569    2.1603   -0.0218 C.2       1 <0>         0.5474
     22 O2          3.6435    3.3757   -0.0155 O.2       1 <0>        -0.5547
     23 N5          4.8314    1.4994   -0.0366 N.am      1 <0>        -0.6748
     24 C16         6.0919    2.2459   -0.0451 C.3       1 <0>         0.0725
     25 C17         7.1909    1.3839   -0.6698 C.3       1 <0>        -0.0811
     26 C18         6.8626    1.1271   -2.1419 C.3       1 <0>        -0.1773
     27 C19         7.9450    0.2781   -2.7573 C.2       1 <0>         0.4911
     28 O3          8.8913   -0.0876   -2.0810 O.co2     1 <0>        -0.6972
     29 O4          7.8745   -0.0430   -3.9313 O.co2     1 <0>        -0.7203
     30 C20         6.4748    2.6012    1.3685 C.2       1 <0>         0.4969
     31 O5          5.8674    2.1124    2.3058 O.co2     1 <0>        -0.6975
     32 O6          7.3921    3.3775    1.5748 O.co2     1 <0>        -0.7008
     33 H1         -0.9598    1.9054    0.0260 H         1 <0>         0.1239
     34 H2          1.1508    3.1682    0.0077 H         1 <0>         0.1338
     35 H3          3.3358   -0.5219   -0.0330 H         1 <0>         0.1286
     36 H4          1.2138   -1.7656   -0.0191 H         1 <0>         0.1226
     37 H5         -1.1489   -1.7256    0.5176 H         1 <0>         0.0743
     38 H6         -2.0557   -0.1941    0.5345 H         1 <0>         0.0799
     39 H7         -1.8929   -0.0704   -1.9367 H         1 <0>         0.0815
     40 H8         -0.9861   -1.6019   -1.9536 H         1 <0>         0.0854
     41 H9         -2.9438   -2.7265   -0.8533 H         1 <0>         0.1008
     42 H10        -3.6863   -1.2004   -3.4018 H         1 <0>         0.0859
     43 H11        -2.6944   -2.6813   -3.3623 H         1 <0>         0.1076
     44 H12        -4.7033   -3.7869   -3.2914 H         1 <0>         0.4027
     45 H13       -10.1814   -3.2200   -1.7715 H         1 <0>         0.4312
     46 H14        -9.3545   -4.1038   -2.9368 H         1 <0>         0.4096
     47 H15         4.8421    0.5294   -0.0416 H         1 <0>         0.3897
     48 H16         5.9699    3.1583   -0.6287 H         1 <0>         0.0783
     49 H17         8.1462    1.9034   -0.5958 H         1 <0>         0.0772
     50 H18         7.2523    0.4333   -0.1400 H         1 <0>         0.0564
     51 H19         5.9072    0.6076   -2.2159 H         1 <0>         0.0503
     52 H20         6.8012    2.0777   -2.6717 H         1 <0>         0.0527
     53 H21        -7.0504   -3.8176   -3.2144 H         1 <0>         0.4112
@<TRIPOS>BOND
     1    1    6 ar
     2    1    2 ar
     3    1   33 1
     4    2    3 ar
     5    2   34 1
     6    3    4 ar
     7    3   21 1
     8    4    5 ar
     9    4   35 1
    10    5    6 ar
    11    5   36 1
    12    6    7 1
    13    7    8 1
    14    7   37 1
    15    7   38 1
    16    8    9 1
    17    8   39 1
    18    8   40 1
    19    9   20 1
    20    9   10 1
    21    9   41 1
    22   10   11 1
    23   10   42 1
    24   10   43 1
    25   11   12 1
    26   11   44 1
    27   12   17 1
    28   12   13 2
    29   13   14 1
    30   13   20 1
    31   14   15 1
    32   14   19 2
    33   15   16 2
    34   16   17 1
    35   16   18 1
    36   17   53 1
    37   18   45 1
    38   18   46 1
    39   21   22 2
    40   21   23 am
    41   23   24 1
    42   23   47 1
    43   24   25 1
    44   24   30 1
    45   24   48 1
    46   25   26 1
    47   25   49 1
    48   25   50 1
    49   26   27 1
    50   26   51 1
    51   26   52 1
    52   27   28 2
    53   27   29 1
    54   30   31 2
    55   30   32 1
@<TRIPOS>MOLECULE
CHEMBL315076__2
   53    55     0     0     0
SMALL
USER_CHARGES

@<TRIPOS>ATOM
      1 C1         -0.0167    1.3794    0.0096 C.ar      1 <0>        -0.1258
      2 C2          1.1667    2.0884    0.0021 C.ar      1 <0>        -0.0637
      3 C3          2.3848    1.4070   -0.0132 C.ar      1 <0>        -0.1105
      4 C4          2.3966    0.0113   -0.0208 C.ar      1 <0>        -0.0833
      5 C5          1.2061   -0.6856   -0.0132 C.ar      1 <0>        -0.1235
      6 C6          0.0021   -0.0041    0.0020 C.ar      1 <0>        -0.0768
      7 C7         -1.2946   -0.7719    0.0103 C.3       1 <0>        -0.0782
      8 C8         -1.7472   -1.0241   -1.4293 C.3       1 <0>        -0.0925
      9 C9         -3.0637   -1.8037   -1.4209 C.3       1 <0>        -0.1051
     10 C10        -3.4870   -2.1284   -2.8621 C.3       1 <0>         0.1259
     11 N1         -4.6901   -2.9541   -2.8247 N.pl3     1 <0>        -0.7085
     12 C11        -5.8390   -2.5859   -2.1566 C.2       1 <0>         0.4814
     13 C12        -5.8514   -1.6328   -1.1524 C.2       1 <0>        -0.3936
     14 C13        -7.0590   -1.3299   -0.5074 C.2       1 <0>         0.5747
     15 N2         -8.1806   -1.9752   -0.8906 N.am      1 <0>        -0.6563
     16 C14        -8.1235   -2.8949   -1.8924 C.2       1 <0>         0.6603
     17 N3         -6.9953   -3.1840   -2.4981 N.2       1 <0>        -0.6153
     18 N4         -9.2736   -3.5360   -2.2784 N.pl3     1 <0>        -0.8225
     19 O1         -7.0950   -0.4973    0.3858 O.2       1 <0>        -0.5287
     20 S1         -4.3781   -0.7881   -0.6798 S.3       1 <0>        -0.0451
     21 C15         3.6569    2.1603   -0.0218 C.2       1 <0>         0.5430
     22 O2          3.6435    3.3757   -0.0155 O.2       1 <0>        -0.5529
     23 N5          4.8314    1.4994   -0.0366 N.am      1 <0>        -0.6755
     24 C16         6.0919    2.2459   -0.0451 C.3       1 <0>         0.0734
     25 C17         7.2027    1.3778    0.5494 C.3       1 <0>        -0.0823
     26 C18         6.9032    1.1060    2.0250 C.3       1 <0>        -0.1774
     27 C19         7.9973    0.2510    2.6105 C.2       1 <0>         0.4913
     28 O3          8.9302   -0.1078    1.9123 O.co2     1 <0>        -0.6978
     29 O4          7.9496   -0.0820    3.7824 O.co2     1 <0>        -0.7195
     30 C20         6.4472    2.6155   -1.4622 C.2       1 <0>         0.4986
     31 O5          7.0818    3.6322   -1.6861 O.co2     1 <0>        -0.7010
     32 O6          6.1002    1.8979   -2.3847 O.co2     1 <0>        -0.6989
     33 H1         -0.9598    1.9054    0.0260 H         1 <0>         0.1237
     34 H2          1.1508    3.1682    0.0077 H         1 <0>         0.1337
     35 H3          3.3358   -0.5219   -0.0330 H         1 <0>         0.1291
     36 H4          1.2138   -1.7656   -0.0191 H         1 <0>         0.1233
     37 H5         -1.1489   -1.7256    0.5176 H         1 <0>         0.0742
     38 H6         -2.0557   -0.1941    0.5345 H         1 <0>         0.0794
     39 H7         -1.8929   -0.0704   -1.9367 H         1 <0>         0.0810
     40 H8         -0.9861   -1.6019   -1.9536 H         1 <0>         0.0851
     41 H9         -2.9438   -2.7260   -0.8526 H         1 <0>         0.0988
     42 H10        -3.6958   -1.2029   -3.3988 H         1 <0>         0.0833
     43 H11        -2.6866   -2.6716   -3.3644 H         1 <0>         0.1048
     44 H12        -4.6810   -3.8038   -3.2925 H         1 <0>         0.4084
     45 H13       -10.1137   -3.3317   -1.8387 H         1 <0>         0.4148
     46 H14        -9.2465   -4.1935   -2.9910 H         1 <0>         0.4276
     47 H15         4.8421    0.5294   -0.0416 H         1 <0>         0.3913
     48 H16         5.9814    3.1523    0.5501 H         1 <0>         0.0779
     49 H17         7.2537    0.4325    0.0090 H         1 <0>         0.0601
     50 H18         8.1565    1.8981    0.4621 H         1 <0>         0.0726
     51 H19         6.8522    2.0513    2.5654 H         1 <0>         0.0529
     52 H20         5.9494    0.5857    2.1123 H         1 <0>         0.0512
     53 H21        -9.0251   -1.7843   -0.4531 H         1 <0>         0.4132
@<TRIPOS>BOND
     1    1    6 ar
     2    1    2 ar
     3    1   33 1
     4    2    3 ar
     5    2   34 1
     6    3    4 ar
     7    3   21 1
     8    4    5 ar
     9    4   35 1
    10    5    6 ar
    11    5   36 1
    12    6    7 1
    13    7    8 1
    14    7   37 1
    15    7   38 1
    16    8    9 1
    17    8   39 1
    18    8   40 1
    19    9   20 1
    20    9   10 1
    21    9   41 1
    22   10   11 1
    23   10   42 1
    24   10   43 1
    25   11   12 1
    26   11   44 1
    27   12   17 1
    28   12   13 2
    29   13   14 1
    30   13   20 1
    31   14   15 am
    32   14   19 2
    33   15   16 1
    34   15   53 1
    35   16   17 2
    36   16   18 1
    37   18   45 1
    38   18   46 1
    39   21   22 2
    40   21   23 am
    41   23   24 1
    42   23   47 1
    43   24   25 1
    44   24   30 1
    45   24   48 1
    46   25   26 1
    47   25   49 1
    48   25   50 1
    49   26   27 1
    50   26   51 1
    51   26   52 1
    52   27   28 2
    53   27   29 1
    54   30   31 2
    55   30   32 1
@<TRIPOS>MOLECULE
CHEMBL315076__3
   53    55     0     0     0
SMALL
USER_CHARGES

@<TRIPOS>ATOM
      1 C1         -0.0167    1.3794    0.0096 C.ar      1 <0>        -0.1255
      2 C2          1.1667    2.0884    0.0021 C.ar      1 <0>        -0.0635
      3 C3          2.3848    1.4070   -0.0132 C.ar      1 <0>        -0.1099
      4 C4          2.3966    0.0113   -0.0208 C.ar      1 <0>        -0.0835
      5 C5          1.2061   -0.6856   -0.0132 C.ar      1 <0>        -0.1235
      6 C6          0.0021   -0.0041    0.0020 C.ar      1 <0>        -0.0777
      7 C7         -1.2946   -0.7719    0.0103 C.3       1 <0>        -0.0786
      8 C8         -1.7472   -1.0241   -1.4293 C.3       1 <0>        -0.0927
      9 C9         -3.0637   -1.8037   -1.4209 C.3       1 <0>        -0.1129
     10 C10        -3.4887   -2.1268   -2.8625 C.3       1 <0>         0.1307
     11 N1         -4.7016   -2.9381   -2.8218 N.pl3     1 <0>        -0.7320
     12 C11        -5.8409   -2.5613   -2.1532 C.2       1 <0>         0.4368
     13 C12        -5.8526   -1.6280   -1.1609 C.2       1 <0>        -0.3438
     14 C13        -7.0697   -1.3219   -0.5125 C.2       1 <0>         0.5606
     15 N2         -8.1981   -1.9412   -0.8907 N.2       1 <0>        -0.6247
     16 C14        -8.1828   -2.8324   -1.8585 C.2       1 <0>         0.6604
     17 N3         -7.0329   -3.1588   -2.5027 N.pl3     1 <0>        -0.6491
     18 N4         -9.3538   -3.4452   -2.2246 N.pl3     1 <0>        -0.8238
     19 O1         -7.0945   -0.4964    0.3898 O.2       1 <0>        -0.5081
     20 S1         -4.3785   -0.7884   -0.6798 S.3       1 <0>        -0.0273
     21 C15         3.6569    2.1603   -0.0218 C.2       1 <0>         0.5428
     22 O2          3.6435    3.3757   -0.0155 O.2       1 <0>        -0.5525
     23 N5          4.8314    1.4994   -0.0366 N.am      1 <0>        -0.6754
     24 C16         6.0919    2.2459   -0.0451 C.3       1 <0>         0.0734
     25 C17         7.2027    1.3778    0.5494 C.3       1 <0>        -0.0822
     26 C18         6.9032    1.1060    2.0250 C.3       1 <0>        -0.1774
     27 C19         7.9973    0.2510    2.6105 C.2       1 <0>         0.4912
     28 O3          8.9302   -0.1078    1.9123 O.co2     1 <0>        -0.6979
     29 O4          7.9496   -0.0820    3.7824 O.co2     1 <0>        -0.7193
     30 C20         6.4472    2.6155   -1.4622 C.2       1 <0>         0.4987
     31 O5          7.0818    3.6322   -1.6861 O.co2     1 <0>        -0.7008
     32 O6          6.1002    1.8979   -2.3847 O.co2     1 <0>        -0.6993
     33 H1         -0.9598    1.9054    0.0260 H         1 <0>         0.1241
     34 H2          1.1508    3.1682    0.0077 H         1 <0>         0.1341
     35 H3          3.3358   -0.5219   -0.0330 H         1 <0>         0.1292
     36 H4          1.2138   -1.7656   -0.0191 H         1 <0>         0.1230
     37 H5         -1.1489   -1.7256    0.5176 H         1 <0>         0.0746
     38 H6         -2.0557   -0.1941    0.5345 H         1 <0>         0.0800
     39 H7         -1.8929   -0.0704   -1.9367 H         1 <0>         0.0816
     40 H8         -0.9861   -1.6019   -1.9536 H         1 <0>         0.0853
     41 H9         -2.9438   -2.7265   -0.8533 H         1 <0>         0.1009
     42 H10        -3.6863   -1.2004   -3.4018 H         1 <0>         0.0859
     43 H11        -2.6944   -2.6813   -3.3623 H         1 <0>         0.1074
     44 H12        -4.7033   -3.7869   -3.2914 H         1 <0>         0.4026
     45 H13       -10.1814   -3.2200   -1.7715 H         1 <0>         0.4313
     46 H14        -9.3545   -4.1038   -2.9368 H         1 <0>         0.4096
     47 H15         4.8421    0.5294   -0.0416 H         1 <0>         0.3912
     48 H16         5.9814    3.1523    0.5501 H         1 <0>         0.0781
     49 H17         7.2537    0.4325    0.0090 H         1 <0>         0.0600
     50 H18         8.1565    1.8981    0.4621 H         1 <0>         0.0727
     51 H19         6.8522    2.0513    2.5654 H         1 <0>         0.0530
     52 H20         5.9494    0.5857    2.1123 H         1 <0>         0.0511
     53 H21        -7.0504   -3.8176   -3.2144 H         1 <0>         0.4111
@<TRIPOS>BOND
     1    1    6 ar
     2    1    2 ar
     3    1   33 1
     4    2    3 ar
     5    2   34 1
     6    3    4 ar
     7    3   21 1
     8    4    5 ar
     9    4   35 1
    10    5    6 ar
    11    5   36 1
    12    6    7 1
    13    7    8 1
    14    7   37 1
    15    7   38 1
    16    8    9 1
    17    8   39 1
    18    8   40 1
    19    9   20 1
    20    9   10 1
    21    9   41 1
    22   10   11 1
    23   10   42 1
    24   10   43 1
    25   11   12 1
    26   11   44 1
    27   12   17 1
    28   12   13 2
    29   13   14 1
    30   13   20 1
    31   14   15 1
    32   14   19 2
    33   15   16 2
    34   16   17 1
    35   16   18 1
    36   17   53 1
    37   18   45 1
    38   18   46 1
    39   21   22 2
    40   21   23 am
    41   23   24 1
    42   23   47 1
    43   24   25 1
    44   24   30 1
    45   24   48 1
    46   25   26 1
    47   25   49 1
    48   25   50 1
    49   26   27 1
    50   26   51 1
    51   26   52 1
    52   27   28 2
    53   27   29 1
    54   30   31 2
    55   30   32 1
@<TRIPOS>MOLECULE
CHEMBL315076__4
   53    55     0     0     0
SMALL
USER_CHARGES

@<TRIPOS>ATOM
      1 C1         -0.0167    1.3794    0.0096 C.ar      1 <0>        -0.1284
      2 C2          1.1667    2.0884    0.0021 C.ar      1 <0>        -0.0653
      3 C3          2.3848    1.4070   -0.0132 C.ar      1 <0>        -0.1088
      4 C4          2.3966    0.0113   -0.0208 C.ar      1 <0>        -0.0824
      5 C5          1.2061   -0.6856   -0.0132 C.ar      1 <0>        -0.1211
      6 C6          0.0021   -0.0041    0.0020 C.ar      1 <0>        -0.0775
      7 C7         -1.2946   -0.7719    0.0103 C.3       1 <0>        -0.0780
      8 C8         -1.7472   -1.0241   -1.4293 C.3       1 <0>        -0.0925
      9 C9         -3.0637   -1.8037   -1.4209 C.3       1 <0>        -0.1056
     10 C10        -3.5659   -1.9952   -2.8607 C.3       1 <0>         0.1259
     11 N1         -4.8680   -2.6537   -2.8214 N.pl3     1 <0>        -0.7089
     12 C11        -5.0911   -3.8489   -2.1706 C.2       1 <0>         0.4805
     13 C12        -4.2518   -4.3344   -1.1822 C.2       1 <0>        -0.3929
     14 C13        -4.5607   -5.5491   -0.5539 C.2       1 <0>         0.5744
     15 N2         -5.6694   -6.2161   -0.9374 N.am      1 <0>        -0.6562
     16 C14        -6.4580   -5.7076   -1.9234 C.2       1 <0>         0.6602
     17 N3         -6.1748   -4.5696   -2.5134 N.2       1 <0>        -0.6156
     18 N4         -7.5764   -6.4019   -2.3107 N.pl3     1 <0>        -0.8226
     19 O1         -3.8393   -5.9956    0.3252 O.2       1 <0>        -0.5273
     20 S1         -2.7982   -3.4564   -0.7092 S.3       1 <0>        -0.0424
     21 C15         3.6569    2.1603   -0.0218 C.2       1 <0>         0.5479
     22 O2          3.6435    3.3757   -0.0155 O.2       1 <0>        -0.5563
     23 N5          4.8314    1.4994   -0.0366 N.am      1 <0>        -0.6745
     24 C16         6.0919    2.2459   -0.0451 C.3       1 <0>         0.0726
     25 C17         7.1909    1.3839   -0.6698 C.3       1 <0>        -0.0813
     26 C18         6.8626    1.1271   -2.1419 C.3       1 <0>        -0.1774
     27 C19         7.9450    0.2781   -2.7573 C.2       1 <0>         0.4911
     28 O3          8.8913   -0.0876   -2.0810 O.co2     1 <0>        -0.6973
     29 O4          7.8745   -0.0430   -3.9313 O.co2     1 <0>        -0.7200
     30 C20         6.4748    2.6012    1.3685 C.2       1 <0>         0.4970
     31 O5          5.8674    2.1124    2.3058 O.co2     1 <0>        -0.6975
     32 O6          7.3921    3.3775    1.5748 O.co2     1 <0>        -0.7011
     33 H1         -0.9598    1.9054    0.0260 H         1 <0>         0.1209
     34 H2          1.1508    3.1682    0.0077 H         1 <0>         0.1327
     35 H3          3.3358   -0.5219   -0.0330 H         1 <0>         0.1292
     36 H4          1.2138   -1.7656   -0.0191 H         1 <0>         0.1253
     37 H5         -1.1489   -1.7256    0.5176 H         1 <0>         0.0801
     38 H6         -2.0557   -0.1941    0.5345 H         1 <0>         0.0729
     39 H7         -1.8929   -0.0704   -1.9367 H         1 <0>         0.0836
     40 H8         -0.9861   -1.6019   -1.9536 H         1 <0>         0.0821
     41 H9         -3.8092   -1.2645   -0.8365 H         1 <0>         0.0978
     42 H10        -3.6621   -1.0241   -3.3462 H         1 <0>         0.1038
     43 H11        -2.8600   -2.6143   -3.4144 H         1 <0>         0.0839
     44 H12        -5.6131   -2.2296   -3.2751 H         1 <0>         0.4078
     45 H13        -7.7966   -7.2442   -1.8829 H         1 <0>         0.4148
     46 H14        -8.1467   -6.0504   -3.0121 H         1 <0>         0.4274
     47 H15         4.8421    0.5294   -0.0416 H         1 <0>         0.3903
     48 H16         5.9699    3.1583   -0.6287 H         1 <0>         0.0782
     49 H17         8.1462    1.9034   -0.5958 H         1 <0>         0.0771
     50 H18         7.2523    0.4333   -0.1400 H         1 <0>         0.0567
     51 H19         5.9072    0.6076   -2.2159 H         1 <0>         0.0507
     52 H20         6.8012    2.0777   -2.6717 H         1 <0>         0.0524
     53 H21        -5.9036   -7.0557   -0.5118 H         1 <0>         0.4133
@<TRIPOS>BOND
     1    1    6 ar
     2    1    2 ar
     3    1   33 1
     4    2    3 ar
     5    2   34 1
     6    3    4 ar
     7    3   21 1
     8    4    5 ar
     9    4   35 1
    10    5    6 ar
    11    5   36 1
    12    6    7 1
    13    7    8 1
    14    7   37 1
    15    7   38 1
    16    8    9 1
    17    8   39 1
    18    8   40 1
    19    9   20 1
    20    9   10 1
    21    9   41 1
    22   10   11 1
    23   10   42 1
    24   10   43 1
    25   11   12 1
    26   11   44 1
    27   12   17 1
    28   12   13 2
    29   13   14 1
    30   13   20 1
    31   14   15 am
    32   14   19 2
    33   15   16 1
    34   15   53 1
    35   16   17 2
    36   16   18 1
    37   18   45 1
    38   18   46 1
    39   21   22 2
    40   21   23 am
    41   23   24 1
    42   23   47 1
    43   24   25 1
    44   24   30 1
    45   24   48 1
    46   25   26 1
    47   25   49 1
    48   25   50 1
    49   26   27 1
    50   26   51 1
    51   26   52 1
    52   27   28 2
    53   27   29 1
    54   30   31 2
    55   30   32 1
@<TRIPOS>MOLECULE
CHEMBL315076__5
   53    55     0     0     0
SMALL
USER_CHARGES

@<TRIPOS>ATOM
      1 C1         -0.0167    1.3794    0.0096 C.ar      1 <0>        -0.1284
      2 C2          1.1667    2.0884    0.0021 C.ar      1 <0>        -0.0655
      3 C3          2.3848    1.4070   -0.0132 C.ar      1 <0>        -0.1081
      4 C4          2.3966    0.0113   -0.0208 C.ar      1 <0>        -0.0822
      5 C5          1.2061   -0.6856   -0.0132 C.ar      1 <0>        -0.1207
      6 C6          0.0021   -0.0041    0.0020 C.ar      1 <0>        -0.0783
      7 C7         -1.2946   -0.7719    0.0103 C.3       1 <0>        -0.0784
      8 C8         -1.7472   -1.0241   -1.4293 C.3       1 <0>        -0.0926
      9 C9         -3.0637   -1.8037   -1.4209 C.3       1 <0>        -0.1135
     10 C10        -3.5653   -1.9974   -2.8611 C.3       1 <0>         0.1307
     11 N1         -4.8594   -2.6715   -2.8189 N.pl3     1 <0>        -0.7324
     12 C11        -5.0704   -3.8625   -2.1675 C.2       1 <0>         0.4355
     13 C12        -4.2482   -4.3376   -1.1908 C.2       1 <0>        -0.3428
     14 C13        -4.5588   -5.5623   -0.5593 C.2       1 <0>         0.5601
     15 N2         -5.6481   -6.2478   -0.9382 N.2       1 <0>        -0.6243
     16 C14        -6.4315   -5.7902   -1.8911 C.2       1 <0>         0.6601
     17 N3         -6.1709   -4.6146   -2.5187 N.pl3     1 <0>        -0.6492
     18 N4         -7.5353   -6.5163   -2.2585 N.pl3     1 <0>        -0.8239
     19 O1         -3.8378   -5.9961    0.3286 O.2       1 <0>        -0.5065
     20 S1         -2.7987   -3.4566   -0.7093 S.3       1 <0>        -0.0244
     21 C15         3.6569    2.1603   -0.0218 C.2       1 <0>         0.5477
     22 O2          3.6435    3.3757   -0.0155 O.2       1 <0>        -0.5563
     23 N5          4.8314    1.4994   -0.0366 N.am      1 <0>        -0.6742
     24 C16         6.0919    2.2459   -0.0451 C.3       1 <0>         0.0726
     25 C17         7.1909    1.3839   -0.6698 C.3       1 <0>        -0.0814
     26 C18         6.8626    1.1271   -2.1419 C.3       1 <0>        -0.1773
     27 C19         7.9450    0.2781   -2.7573 C.2       1 <0>         0.4910
     28 O3          8.8913   -0.0876   -2.0810 O.co2     1 <0>        -0.6970
     29 O4          7.8745   -0.0430   -3.9313 O.co2     1 <0>        -0.7201
     30 C20         6.4748    2.6012    1.3685 C.2       1 <0>         0.4969
     31 O5          5.8674    2.1124    2.3058 O.co2     1 <0>        -0.6973
     32 O6          7.3921    3.3775    1.5748 O.co2     1 <0>        -0.7010
     33 H1         -0.9598    1.9054    0.0260 H         1 <0>         0.1207
     34 H2          1.1508    3.1682    0.0077 H         1 <0>         0.1328
     35 H3          3.3358   -0.5219   -0.0330 H         1 <0>         0.1296
     36 H4          1.2138   -1.7656   -0.0191 H         1 <0>         0.1258
     37 H5         -1.1489   -1.7256    0.5176 H         1 <0>         0.0808
     38 H6         -2.0557   -0.1941    0.5345 H         1 <0>         0.0733
     39 H7         -1.8929   -0.0704   -1.9367 H         1 <0>         0.0839
     40 H8         -0.9861   -1.6019   -1.9536 H         1 <0>         0.0828
     41 H9         -3.8096   -1.2643   -0.8372 H         1 <0>         0.0999
     42 H10        -3.6743   -1.0264   -3.3441 H         1 <0>         0.1064
     43 H11        -2.8533   -2.6072   -3.4173 H         1 <0>         0.0865
     44 H12        -5.6091   -2.2570   -3.2740 H         1 <0>         0.4021
     45 H13        -7.7314   -7.3575   -1.8171 H         1 <0>         0.4313
     46 H14        -8.1200   -6.1887   -2.9598 H         1 <0>         0.4094
     47 H15         4.8421    0.5294   -0.0416 H         1 <0>         0.3904
     48 H16         5.9699    3.1583   -0.6287 H         1 <0>         0.0781
     49 H17         8.1462    1.9034   -0.5958 H         1 <0>         0.0772
     50 H18         7.2523    0.4333   -0.1400 H         1 <0>         0.0569
     51 H19         5.9072    0.6076   -2.2159 H         1 <0>         0.0505
     52 H20         6.8012    2.0777   -2.6717 H         1 <0>         0.0523
     53 H21        -6.7638   -4.3017   -3.2198 H         1 <0>         0.4108
@<TRIPOS>BOND
     1    1    6 ar
     2    1    2 ar
     3    1   33 1
     4    2    3 ar
     5    2   34 1
     6    3    4 ar
     7    3   21 1
     8    4    5 ar
     9    4   35 1
    10    5    6 ar
    11    5   36 1
    12    6    7 1
    13    7    8 1
    14    7   37 1
    15    7   38 1
    16    8    9 1
    17    8   39 1
    18    8   40 1
    19    9   20 1
    20    9   10 1
    21    9   41 1
    22   10   11 1
    23   10   42 1
    24   10   43 1
    25   11   12 1
    26   11   44 1
    27   12   17 1
    28   12   13 2
    29   13   14 1
    30   13   20 1
    31   14   15 1
    32   14   19 2
    33   15   16 2
    34   16   17 1
    35   16   18 1
    36   17   53 1
    37   18   45 1
    38   18   46 1
    39   21   22 2
    40   21   23 am
    41   23   24 1
    42   23   47 1
    43   24   25 1
    44   24   30 1
    45   24   48 1
    46   25   26 1
    47   25   49 1
    48   25   50 1
    49   26   27 1
    50   26   51 1
    51   26   52 1
    52   27   28 2
    53   27   29 1
    54   30   31 2
    55   30   32 1
@<TRIPOS>MOLECULE
CHEMBL315076__6
   53    55     0     0     0
SMALL
USER_CHARGES

@<TRIPOS>ATOM
      1 C1         -0.0167    1.3794    0.0096 C.ar      1 <0>        -0.1284
      2 C2          1.1667    2.0884    0.0021 C.ar      1 <0>        -0.0650
      3 C3          2.3848    1.4070   -0.0132 C.ar      1 <0>        -0.1106
      4 C4          2.3966    0.0113   -0.0208 C.ar      1 <0>        -0.0821
      5 C5          1.2061   -0.6856   -0.0132 C.ar      1 <0>        -0.1209
      6 C6          0.0021   -0.0041    0.0020 C.ar      1 <0>        -0.0768
      7 C7         -1.2946   -0.7719    0.0103 C.3       1 <0>        -0.0781
      8 C8         -1.7472   -1.0241   -1.4293 C.3       1 <0>        -0.0926
      9 C9         -3.0637   -1.8037   -1.4209 C.3       1 <0>        -0.1056
     10 C10        -3.5659   -1.9952   -2.8607 C.3       1 <0>         0.1260
     11 N1         -4.8680   -2.6537   -2.8214 N.pl3     1 <0>        -0.7089
     12 C11        -5.0911   -3.8489   -2.1706 C.2       1 <0>         0.4804
     13 C12        -4.2518   -4.3344   -1.1822 C.2       1 <0>        -0.3929
     14 C13        -4.5607   -5.5491   -0.5539 C.2       1 <0>         0.5743
     15 N2         -5.6694   -6.2161   -0.9374 N.am      1 <0>        -0.6561
     16 C14        -6.4580   -5.7076   -1.9234 C.2       1 <0>         0.6602
     17 N3         -6.1748   -4.5696   -2.5134 N.2       1 <0>        -0.6157
     18 N4         -7.5764   -6.4019   -2.3107 N.pl3     1 <0>        -0.8227
     19 O1         -3.8393   -5.9956    0.3252 O.2       1 <0>        -0.5270
     20 S1         -2.7982   -3.4564   -0.7092 S.3       1 <0>        -0.0423
     21 C15         3.6569    2.1603   -0.0218 C.2       1 <0>         0.5432
     22 O2          3.6435    3.3757   -0.0155 O.2       1 <0>        -0.5541
     23 N5          4.8314    1.4994   -0.0366 N.am      1 <0>        -0.6751
     24 C16         6.0919    2.2459   -0.0451 C.3       1 <0>         0.0735
     25 C17         7.2027    1.3778    0.5494 C.3       1 <0>        -0.0825
     26 C18         6.9032    1.1060    2.0250 C.3       1 <0>        -0.1774
     27 C19         7.9973    0.2510    2.6105 C.2       1 <0>         0.4912
     28 O3          8.9302   -0.1078    1.9123 O.co2     1 <0>        -0.6977
     29 O4          7.9496   -0.0820    3.7824 O.co2     1 <0>        -0.7194
     30 C20         6.4472    2.6155   -1.4622 C.2       1 <0>         0.4986
     31 O5          7.0818    3.6322   -1.6861 O.co2     1 <0>        -0.7013
     32 O6          6.1002    1.8979   -2.3847 O.co2     1 <0>        -0.6986
     33 H1         -0.9598    1.9054    0.0260 H         1 <0>         0.1212
     34 H2          1.1508    3.1682    0.0077 H         1 <0>         0.1329
     35 H3          3.3358   -0.5219   -0.0330 H         1 <0>         0.1298
     36 H4          1.2138   -1.7656   -0.0191 H         1 <0>         0.1257
     37 H5         -1.1489   -1.7256    0.5176 H         1 <0>         0.0804
     38 H6         -2.0557   -0.1941    0.5345 H         1 <0>         0.0730
     39 H7         -1.8929   -0.0704   -1.9367 H         1 <0>         0.0838
     40 H8         -0.9861   -1.6019   -1.9536 H         1 <0>         0.0821
     41 H9         -3.8092   -1.2645   -0.8365 H         1 <0>         0.0979
     42 H10        -3.6621   -1.0241   -3.3462 H         1 <0>         0.1038
     43 H11        -2.8600   -2.6143   -3.4144 H         1 <0>         0.0838
     44 H12        -5.6131   -2.2296   -3.2751 H         1 <0>         0.4079
     45 H13        -7.7966   -7.2442   -1.8829 H         1 <0>         0.4149
     46 H14        -8.1467   -6.0504   -3.0121 H         1 <0>         0.4274
     47 H15         4.8421    0.5294   -0.0416 H         1 <0>         0.3918
     48 H16         5.9814    3.1523    0.5501 H         1 <0>         0.0778
     49 H17         7.2537    0.4325    0.0090 H         1 <0>         0.0604
     50 H18         8.1565    1.8981    0.4621 H         1 <0>         0.0726
     51 H19         6.8522    2.0513    2.5654 H         1 <0>         0.0526
     52 H20         5.9494    0.5857    2.1123 H         1 <0>         0.0513
     53 H21        -5.9036   -7.0557   -0.5118 H         1 <0>         0.4134
@<TRIPOS>BOND
     1    1    6 ar
     2    1    2 ar
     3    1   33 1
     4    2    3 ar
     5    2   34 1
     6    3    4 ar
     7    3   21 1
     8    4    5 ar
     9    4   35 1
    10    5    6 ar
    11    5   36 1
    12    6    7 1
    13    7    8 1
    14    7   37 1
    15    7   38 1
    16    8    9 1
    17    8   39 1
    18    8   40 1
    19    9   20 1
    20    9   10 1
    21    9   41 1
    22   10   11 1
    23   10   42 1
    24   10   43 1
    25   11   12 1
    26   11   44 1
    27   12   17 1
    28   12   13 2
    29   13   14 1
    30   13   20 1
    31   14   15 am
    32   14   19 2
    33   15   16 1
    34   15   53 1
    35   16   17 2
    36   16   18 1
    37   18   45 1
    38   18   46 1
    39   21   22 2
    40   21   23 am
    41   23   24 1
    42   23   47 1
    43   24   25 1
    44   24   30 1
    45   24   48 1
    46   25   26 1
    47   25   49 1
    48   25   50 1
    49   26   27 1
    50   26   51 1
    51   26   52 1
    52   27   28 2
    53   27   29 1
    54   30   31 2
    55   30   32 1
@<TRIPOS>MOLECULE
CHEMBL315076__7
   53    55     0     0     0
SMALL
USER_CHARGES

@<TRIPOS>ATOM
      1 C1         -0.0167    1.3794    0.0096 C.ar      1 <0>        -0.1284
      2 C2          1.1667    2.0884    0.0021 C.ar      1 <0>        -0.0652
      3 C3          2.3848    1.4070   -0.0132 C.ar      1 <0>        -0.1099
      4 C4          2.3966    0.0113   -0.0208 C.ar      1 <0>        -0.0818
      5 C5          1.2061   -0.6856   -0.0132 C.ar      1 <0>        -0.1206
      6 C6          0.0021   -0.0041    0.0020 C.ar      1 <0>        -0.0777
      7 C7         -1.2946   -0.7719    0.0103 C.3       1 <0>        -0.0786
      8 C8         -1.7472   -1.0241   -1.4293 C.3       1 <0>        -0.0928
      9 C9         -3.0637   -1.8037   -1.4209 C.3       1 <0>        -0.1135
     10 C10        -3.5653   -1.9974   -2.8611 C.3       1 <0>         0.1308
     11 N1         -4.8594   -2.6715   -2.8189 N.pl3     1 <0>        -0.7325
     12 C11        -5.0704   -3.8625   -2.1675 C.2       1 <0>         0.4354
     13 C12        -4.2482   -4.3376   -1.1908 C.2       1 <0>        -0.3428
     14 C13        -4.5588   -5.5623   -0.5593 C.2       1 <0>         0.5599
     15 N2         -5.6481   -6.2478   -0.9382 N.2       1 <0>        -0.6241
     16 C14        -6.4315   -5.7902   -1.8911 C.2       1 <0>         0.6600
     17 N3         -6.1709   -4.6146   -2.5187 N.pl3     1 <0>        -0.6492
     18 N4         -7.5353   -6.5163   -2.2585 N.pl3     1 <0>        -0.8239
     19 O1         -3.8378   -5.9961    0.3286 O.2       1 <0>        -0.5062
     20 S1         -2.7987   -3.4566   -0.7093 S.3       1 <0>        -0.0243
     21 C15         3.6569    2.1603   -0.0218 C.2       1 <0>         0.5430
     22 O2          3.6435    3.3757   -0.0155 O.2       1 <0>        -0.5541
     23 N5          4.8314    1.4994   -0.0366 N.am      1 <0>        -0.6748
     24 C16         6.0919    2.2459   -0.0451 C.3       1 <0>         0.0734
     25 C17         7.2027    1.3778    0.5494 C.3       1 <0>        -0.0825
     26 C18         6.9032    1.1060    2.0250 C.3       1 <0>        -0.1774
     27 C19         7.9973    0.2510    2.6105 C.2       1 <0>         0.4912
     28 O3          8.9302   -0.1078    1.9123 O.co2     1 <0>        -0.6977
     29 O4          7.9496   -0.0820    3.7824 O.co2     1 <0>        -0.7191
     30 C20         6.4472    2.6155   -1.4622 C.2       1 <0>         0.4986
     31 O5          7.0818    3.6322   -1.6861 O.co2     1 <0>        -0.7012
     32 O6          6.1002    1.8979   -2.3847 O.co2     1 <0>        -0.6987
     33 H1         -0.9598    1.9054    0.0260 H         1 <0>         0.1209
     34 H2          1.1508    3.1682    0.0077 H         1 <0>         0.1330
     35 H3          3.3358   -0.5219   -0.0330 H         1 <0>         0.1302
     36 H4          1.2138   -1.7656   -0.0191 H         1 <0>         0.1262
     37 H5         -1.1489   -1.7256    0.5176 H         1 <0>         0.0811
     38 H6         -2.0557   -0.1941    0.5345 H         1 <0>         0.0735
     39 H7         -1.8929   -0.0704   -1.9367 H         1 <0>         0.0840
     40 H8         -0.9861   -1.6019   -1.9536 H         1 <0>         0.0827
     41 H9         -3.8096   -1.2643   -0.8372 H         1 <0>         0.1000
     42 H10        -3.6743   -1.0264   -3.3441 H         1 <0>         0.1064
     43 H11        -2.8533   -2.6072   -3.4173 H         1 <0>         0.0863
     44 H12        -5.6091   -2.2570   -3.2740 H         1 <0>         0.4021
     45 H13        -7.7314   -7.3575   -1.8171 H         1 <0>         0.4313
     46 H14        -8.1200   -6.1887   -2.9598 H         1 <0>         0.4094
     47 H15         4.8421    0.5294   -0.0416 H         1 <0>         0.3918
     48 H16         5.9814    3.1523    0.5501 H         1 <0>         0.0779
     49 H17         7.2537    0.4325    0.0090 H         1 <0>         0.0604
     50 H18         8.1565    1.8981    0.4621 H         1 <0>         0.0727
     51 H19         6.8522    2.0513    2.5654 H         1 <0>         0.0526
     52 H20         5.9494    0.5857    2.1123 H         1 <0>         0.0513
     53 H21        -6.7638   -4.3017   -3.2198 H         1 <0>         0.4108
@<TRIPOS>BOND
     1    1    6 ar
     2    1    2 ar
     3    1   33 1
     4    2    3 ar
     5    2   34 1
     6    3    4 ar
     7    3   21 1
     8    4    5 ar
     9    4   35 1
    10    5    6 ar
    11    5   36 1
    12    6    7 1
    13    7    8 1
    14    7   37 1
    15    7   38 1
    16    8    9 1
    17    8   39 1
    18    8   40 1
    19    9   20 1
    20    9   10 1
    21    9   41 1
    22   10   11 1
    23   10   42 1
    24   10   43 1
    25   11   12 1
    26   11   44 1
    27   12   17 1
    28   12   13 2
    29   13   14 1
    30   13   20 1
    31   14   15 1
    32   14   19 2
    33   15   16 2
    34   16   17 1
    35   16   18 1
    36   17   53 1
    37   18   45 1
    38   18   46 1
    39   21   22 2
    40   21   23 am
    41   23   24 1
    42   23   47 1
    43   24   25 1
    44   24   30 1
    45   24   48 1
    46   25   26 1
    47   25   49 1
    48   25   50 1
    49   26   27 1
    50   26   51 1
    51   26   52 1
    52   27   28 2
    53   27   29 1
    54   30   31 2
    55   30   32 1
@<TRIPOS>MOLECULE
CHEMBL140170
   59    61     0     0     0
SMALL
USER_CHARGES

@<TRIPOS>ATOM
      1 C1         -0.0167    1.3794    0.0096 C.ar      1 <0>        -0.1289
      2 C2          1.1667    2.0884    0.0021 C.ar      1 <0>        -0.0640
      3 C3          2.3848    1.4070   -0.0132 C.ar      1 <0>        -0.1114
      4 C4          2.3966    0.0113   -0.0208 C.ar      1 <0>        -0.0831
      5 C5          1.2061   -0.6856   -0.0132 C.ar      1 <0>        -0.1248
      6 C6          0.0021   -0.0041    0.0020 C.ar      1 <0>        -0.0753
      7 C7         -1.2946   -0.7719    0.0103 C.3       1 <0>        -0.0774
      8 C8         -1.7472   -1.0241   -1.4293 C.3       1 <0>        -0.1102
      9 C9         -3.0637   -1.8037   -1.4209 C.3       1 <0>        -0.0746
     10 C10        -2.8321   -3.1681   -0.7861 C.3       1 <0>        -0.1455
     11 C11        -4.1056   -3.9326   -0.5119 C.3       1 <0>         0.1424
     12 N1         -4.7931   -4.2569   -1.7724 N.pl3     1 <0>        -0.7812
     13 C12        -5.6184   -3.2942   -2.3262 C.2       1 <0>         0.3131
     14 C13        -7.0065   -3.4848   -2.3823 C.2       1 <0>        -0.3289
     15 C14        -7.7935   -2.5012   -2.9087 C.2       1 <0>         0.4494
     16 N2         -7.2471   -1.3394   -3.3699 N.am      1 <0>        -0.6321
     17 C15        -5.9145   -1.1384   -3.3431 C.2       1 <0>         0.5449
     18 C16        -5.0781   -2.1234   -2.8293 C.2       1 <0>        -0.2923
     19 C17        -3.5723   -1.9430   -2.8533 C.3       1 <0>        -0.0354
     20 O1         -5.4432   -0.0946   -3.7687 O.2       1 <0>        -0.5500
     21 N3         -9.1567   -2.6844   -2.9755 N.pl3     1 <0>        -0.8598
     22 C18         3.6569    2.1603   -0.0218 C.2       1 <0>         0.5484
     23 O2          3.6435    3.3757   -0.0155 O.2       1 <0>        -0.5561
     24 N4          4.8314    1.4994   -0.0366 N.am      1 <0>        -0.6751
     25 C19         6.0919    2.2459   -0.0451 C.3       1 <0>         0.0725
     26 C20         7.1909    1.3839   -0.6698 C.3       1 <0>        -0.0808
     27 C21         6.8626    1.1271   -2.1419 C.3       1 <0>        -0.1777
     28 C22         7.9450    0.2781   -2.7573 C.2       1 <0>         0.4912
     29 O3          8.8913   -0.0876   -2.0810 O.co2     1 <0>        -0.6977
     30 O4          7.8745   -0.0430   -3.9313 O.co2     1 <0>        -0.7197
     31 C23         6.4748    2.6012    1.3685 C.2       1 <0>         0.4972
     32 O5          5.8674    2.1124    2.3058 O.co2     1 <0>        -0.6979
     33 O6          7.3921    3.3775    1.5748 O.co2     1 <0>        -0.7012
     34 H1         -0.9598    1.9054    0.0260 H         1 <0>         0.1210
     35 H2          1.1508    3.1682    0.0077 H         1 <0>         0.1324
     36 H3          3.3358   -0.5219   -0.0330 H         1 <0>         0.1280
     37 H4          1.2138   -1.7656   -0.0191 H         1 <0>         0.1223
     38 H5         -1.1489   -1.7256    0.5176 H         1 <0>         0.0723
     39 H6         -2.0557   -0.1941    0.5345 H         1 <0>         0.0680
     40 H7         -1.8929   -0.0704   -1.9367 H         1 <0>         0.0673
     41 H8         -0.9861   -1.6019   -1.9536 H         1 <0>         0.0655
     42 H9         -3.7995   -1.2563   -0.8318 H         1 <0>         0.0641
     43 H10        -2.2064   -3.7612   -1.4531 H         1 <0>         0.0637
     44 H11        -2.2996   -3.0290    0.1547 H         1 <0>         0.0726
     45 H12        -3.8651   -4.8559    0.0153 H         1 <0>         0.0726
     46 H13        -4.7628   -3.3262    0.1113 H         1 <0>         0.0596
     47 H14        -4.6712   -5.1183   -2.2014 H         1 <0>         0.4015
     48 H15        -7.4479   -4.3987   -2.0130 H         1 <0>         0.1385
     49 H16        -3.3217   -1.0450   -3.4181 H         1 <0>         0.0761
     50 H17        -3.1086   -2.8110   -3.3220 H         1 <0>         0.0646
     51 H18        -9.5518   -3.5082   -2.6497 H         1 <0>         0.4195
     52 H19        -9.7217   -1.9897   -3.3483 H         1 <0>         0.4017
     53 H20         4.8421    0.5294   -0.0416 H         1 <0>         0.3899
     54 H21         5.9699    3.1583   -0.6287 H         1 <0>         0.0781
     55 H22         8.1462    1.9034   -0.5958 H         1 <0>         0.0769
     56 H23         7.2523    0.4333   -0.1400 H         1 <0>         0.0563
     57 H24         5.9072    0.6076   -2.2159 H         1 <0>         0.0507
     58 H25         6.8012    2.0777   -2.6717 H         1 <0>         0.0526
     59 H26        -7.8269   -0.6467   -3.7232 H         1 <0>         0.4061
@<TRIPOS>BOND
     1    1    6 ar
     2    1    2 ar
     3    1   34 1
     4    2    3 ar
     5    2   35 1
     6    3    4 ar
     7    3   22 1
     8    4    5 ar
     9    4   36 1
    10    5    6 ar
    11    5   37 1
    12    6    7 1
    13    7    8 1
    14    7   38 1
    15    7   39 1
    16    8    9 1
    17    8   40 1
    18    8   41 1
    19    9   19 1
    20    9   10 1
    21    9   42 1
    22   10   11 1
    23   10   43 1
    24   10   44 1
    25   11   12 1
    26   11   45 1
    27   11   46 1
    28   12   13 1
    29   12   47 1
    30   13   18 2
    31   13   14 1
    32   14   15 2
    33   14   48 1
    34   15   16 1
    35   15   21 1
    36   16   17 am
    37   16   59 1
    38   17   18 1
    39   17   20 2
    40   18   19 1
    41   19   49 1
    42   19   50 1
    43   21   51 1
    44   21   52 1
    45   22   23 2
    46   22   24 am
    47   24   25 1
    48   24   53 1
    49   25   26 1
    50   25   31 1
    51   25   54 1
    52   26   27 1
    53   26   55 1
    54   26   56 1
    55   27   28 1
    56   27   57 1
    57   27   58 1
    58   28   29 2
    59   28   30 1
    60   31   32 2
    61   31   33 1
@<TRIPOS>MOLECULE
CHEMBL140170__1
   59    61     0     0     0
SMALL
USER_CHARGES

@<TRIPOS>ATOM
      1 C1         -0.0167    1.3794    0.0096 C.ar      1 <0>        -0.1290
      2 C2          1.1667    2.0884    0.0021 C.ar      1 <0>        -0.0638
      3 C3          2.3848    1.4070   -0.0132 C.ar      1 <0>        -0.1131
      4 C4          2.3966    0.0113   -0.0208 C.ar      1 <0>        -0.0827
      5 C5          1.2061   -0.6856   -0.0132 C.ar      1 <0>        -0.1246
      6 C6          0.0021   -0.0041    0.0020 C.ar      1 <0>        -0.0746
      7 C7         -1.2946   -0.7719    0.0103 C.3       1 <0>        -0.0775
      8 C8         -1.7472   -1.0241   -1.4293 C.3       1 <0>        -0.1104
      9 C9         -3.0637   -1.8037   -1.4209 C.3       1 <0>        -0.0746
     10 C10        -2.8321   -3.1681   -0.7861 C.3       1 <0>        -0.1454
     11 C11        -4.1056   -3.9326   -0.5119 C.3       1 <0>         0.1424
     12 N1         -4.7931   -4.2569   -1.7724 N.pl3     1 <0>        -0.7812
     13 C12        -5.6184   -3.2942   -2.3262 C.2       1 <0>         0.3131
     14 C13        -7.0065   -3.4848   -2.3823 C.2       1 <0>        -0.3290
     15 C14        -7.7935   -2.5012   -2.9087 C.2       1 <0>         0.4495
     16 N2         -7.2471   -1.3394   -3.3699 N.am      1 <0>        -0.6322
     17 C15        -5.9145   -1.1384   -3.3431 C.2       1 <0>         0.5449
     18 C16        -5.0781   -2.1234   -2.8293 C.2       1 <0>        -0.2924
     19 C17        -3.5723   -1.9430   -2.8533 C.3       1 <0>        -0.0354
     20 O1         -5.4432   -0.0946   -3.7687 O.2       1 <0>        -0.5498
     21 N3         -9.1567   -2.6844   -2.9755 N.pl3     1 <0>        -0.8598
     22 C18         3.6569    2.1603   -0.0218 C.2       1 <0>         0.5437
     23 O2          3.6435    3.3757   -0.0155 O.2       1 <0>        -0.5538
     24 N4          4.8314    1.4994   -0.0366 N.am      1 <0>        -0.6758
     25 C19         6.0919    2.2459   -0.0451 C.3       1 <0>         0.0735
     26 C20         7.2027    1.3778    0.5494 C.3       1 <0>        -0.0823
     27 C21         6.9032    1.1060    2.0250 C.3       1 <0>        -0.1773
     28 C22         7.9973    0.2510    2.6105 C.2       1 <0>         0.4914
     29 O3          8.9302   -0.1078    1.9123 O.co2     1 <0>        -0.6976
     30 O4          7.9496   -0.0820    3.7824 O.co2     1 <0>        -0.7198
     31 C23         6.4472    2.6155   -1.4622 C.2       1 <0>         0.4983
     32 O5          7.0818    3.6322   -1.6861 O.co2     1 <0>        -0.7014
     33 O6          6.1002    1.8979   -2.3847 O.co2     1 <0>        -0.6984
     34 H1         -0.9598    1.9054    0.0260 H         1 <0>         0.1212
     35 H2          1.1508    3.1682    0.0077 H         1 <0>         0.1326
     36 H3          3.3358   -0.5219   -0.0330 H         1 <0>         0.1287
     37 H4          1.2138   -1.7656   -0.0191 H         1 <0>         0.1227
     38 H5         -1.1489   -1.7256    0.5176 H         1 <0>         0.0726
     39 H6         -2.0557   -0.1941    0.5345 H         1 <0>         0.0681
     40 H7         -1.8929   -0.0704   -1.9367 H         1 <0>         0.0674
     41 H8         -0.9861   -1.6019   -1.9536 H         1 <0>         0.0655
     42 H9         -3.7995   -1.2563   -0.8318 H         1 <0>         0.0642
     43 H10        -2.2064   -3.7612   -1.4531 H         1 <0>         0.0636
     44 H11        -2.2996   -3.0290    0.1547 H         1 <0>         0.0727
     45 H12        -3.8651   -4.8559    0.0153 H         1 <0>         0.0727
     46 H13        -4.7628   -3.3262    0.1113 H         1 <0>         0.0597
     47 H14        -4.6712   -5.1183   -2.2014 H         1 <0>         0.4015
     48 H15        -7.4479   -4.3987   -2.0130 H         1 <0>         0.1386
     49 H16        -3.3217   -1.0450   -3.4181 H         1 <0>         0.0761
     50 H17        -3.1086   -2.8110   -3.3220 H         1 <0>         0.0644
     51 H18        -9.5518   -3.5082   -2.6497 H         1 <0>         0.4195
     52 H19        -9.7217   -1.9897   -3.3483 H         1 <0>         0.4017
     53 H20         4.8421    0.5294   -0.0416 H         1 <0>         0.3913
     54 H21         5.9814    3.1523    0.5501 H         1 <0>         0.0777
     55 H22         7.2537    0.4325    0.0090 H         1 <0>         0.0601
     56 H23         8.1565    1.8981    0.4621 H         1 <0>         0.0726
     57 H24         6.8522    2.0513    2.5654 H         1 <0>         0.0527
     58 H25         5.9494    0.5857    2.1123 H         1 <0>         0.0512
     59 H26        -7.8269   -0.6467   -3.7232 H         1 <0>         0.4061
@<TRIPOS>BOND
     1    1    6 ar
     2    1    2 ar
     3    1   34 1
     4    2    3 ar
     5    2   35 1
     6    3    4 ar
     7    3   22 1
     8    4    5 ar
     9    4   36 1
    10    5    6 ar
    11    5   37 1
    12    6    7 1
    13    7    8 1
    14    7   38 1
    15    7   39 1
    16    8    9 1
    17    8   40 1
    18    8   41 1
    19    9   19 1
    20    9   10 1
    21    9   42 1
    22   10   11 1
    23   10   43 1
    24   10   44 1
    25   11   12 1
    26   11   45 1
    27   11   46 1
    28   12   13 1
    29   12   47 1
    30   13   18 2
    31   13   14 1
    32   14   15 2
    33   14   48 1
    34   15   16 1
    35   15   21 1
    36   16   17 am
    37   16   59 1
    38   17   18 1
    39   17   20 2
    40   18   19 1
    41   19   49 1
    42   19   50 1
    43   21   51 1
    44   21   52 1
    45   22   23 2
    46   22   24 am
    47   24   25 1
    48   24   53 1
    49   25   26 1
    50   25   31 1
    51   25   54 1
    52   26   27 1
    53   26   55 1
    54   26   56 1
    55   27   28 1
    56   27   57 1
    57   27   58 1
    58   28   29 2
    59   28   30 1
    60   31   32 2
    61   31   33 1
@<TRIPOS>MOLECULE
CHEMBL140170__2
   59    61     0     0     0
SMALL
USER_CHARGES

@<TRIPOS>ATOM
      1 C1         -0.0167    1.3794    0.0096 C.ar      1 <0>        -0.1295
      2 C2          1.1667    2.0884    0.0021 C.ar      1 <0>        -0.0647
      3 C3          2.3848    1.4070   -0.0132 C.ar      1 <0>        -0.1114
      4 C4          2.3966    0.0113   -0.0208 C.ar      1 <0>        -0.0824
      5 C5          1.2061   -0.6856   -0.0132 C.ar      1 <0>        -0.1242
      6 C6          0.0021   -0.0041    0.0020 C.ar      1 <0>        -0.0753
      7 C7         -1.2946   -0.7719    0.0103 C.3       1 <0>        -0.0774
      8 C8         -1.7472   -1.0241   -1.4293 C.3       1 <0>        -0.1101
      9 C9         -3.0637   -1.8037   -1.4209 C.3       1 <0>        -0.0754
     10 C10        -4.1425   -0.9552   -0.7617 C.3       1 <0>        -0.1443
     11 C11        -5.4224   -1.7087   -0.4873 C.3       1 <0>         0.1423
     12 N1         -6.0496   -2.1350   -1.7489 N.pl3     1 <0>        -0.7812
     13 C12        -5.6077   -3.3123   -2.3264 C.2       1 <0>         0.3120
     14 C13        -6.4428   -4.4368   -2.3928 C.2       1 <0>        -0.3302
     15 C14        -5.9640   -5.5910   -2.9428 C.2       1 <0>         0.4504
     16 N2         -4.6871   -5.6627   -3.4176 N.am      1 <0>        -0.6321
     17 C15        -3.8696   -4.5917   -3.3804 C.2       1 <0>         0.5443
     18 C16        -4.3263   -3.3931   -2.8434 C.2       1 <0>        -0.2919
     19 C17        -3.4443   -2.1592   -2.8557 C.3       1 <0>        -0.0353
     20 O1         -2.7314   -4.6738   -3.8170 O.2       1 <0>        -0.5472
     21 N3         -6.7805   -6.6972   -3.0189 N.pl3     1 <0>        -0.8597
     22 C18         3.6569    2.1603   -0.0218 C.2       1 <0>         0.5486
     23 O2          3.6435    3.3757   -0.0155 O.2       1 <0>        -0.5567
     24 N4          4.8314    1.4994   -0.0366 N.am      1 <0>        -0.6750
     25 C19         6.0919    2.2459   -0.0451 C.3       1 <0>         0.0726
     26 C20         7.1909    1.3839   -0.6698 C.3       1 <0>        -0.0809
     27 C21         6.8626    1.1271   -2.1419 C.3       1 <0>        -0.1777
     28 C22         7.9450    0.2781   -2.7573 C.2       1 <0>         0.4912
     29 O3          8.8913   -0.0876   -2.0810 O.co2     1 <0>        -0.6978
     30 O4          7.8745   -0.0430   -3.9313 O.co2     1 <0>        -0.7195
     31 C23         6.4748    2.6012    1.3685 C.2       1 <0>         0.4972
     32 O5          5.8674    2.1124    2.3058 O.co2     1 <0>        -0.6979
     33 O6          7.3921    3.3775    1.5748 O.co2     1 <0>        -0.7013
     34 H1         -0.9598    1.9054    0.0260 H         1 <0>         0.1204
     35 H2          1.1508    3.1682    0.0077 H         1 <0>         0.1322
     36 H3          3.3358   -0.5219   -0.0330 H         1 <0>         0.1282
     37 H4          1.2138   -1.7656   -0.0191 H         1 <0>         0.1229
     38 H5         -1.1489   -1.7256    0.5176 H         1 <0>         0.0690
     39 H6         -2.0557   -0.1941    0.5345 H         1 <0>         0.0713
     40 H7         -1.8929   -0.0704   -1.9367 H         1 <0>         0.0640
     41 H8         -0.9861   -1.6019   -1.9536 H         1 <0>         0.0687
     42 H9         -2.9319   -2.7215   -0.8480 H         1 <0>         0.0650
     43 H10        -3.7553   -0.5705    0.1818 H         1 <0>         0.0720
     44 H11        -4.3680   -0.1106   -1.4128 H         1 <0>         0.0624
     45 H12        -5.2007   -2.5865    0.1195 H         1 <0>         0.0601
     46 H13        -6.1112   -1.0627    0.0571 H         1 <0>         0.0718
     47 H14        -6.7507   -1.6074   -2.1623 H         1 <0>         0.4009
     48 H15        -7.4528   -4.3905   -2.0130 H         1 <0>         0.1381
     49 H16        -3.9868   -1.3278   -3.3056 H         1 <0>         0.0636
     50 H17        -2.5419   -2.3620   -3.4326 H         1 <0>         0.0767
     51 H18        -7.6894   -6.6532   -2.6830 H         1 <0>         0.4193
     52 H19        -6.4467   -7.5204   -3.4085 H         1 <0>         0.4020
     53 H20         4.8421    0.5294   -0.0416 H         1 <0>         0.3901
     54 H21         5.9699    3.1583   -0.6287 H         1 <0>         0.0781
     55 H22         8.1462    1.9034   -0.5958 H         1 <0>         0.0770
     56 H23         7.2523    0.4333   -0.1400 H         1 <0>         0.0564
     57 H24         5.9072    0.6076   -2.2159 H         1 <0>         0.0508
     58 H25         6.8012    2.0777   -2.6717 H         1 <0>         0.0526
     59 H26        -4.3621   -6.4983   -3.7878 H         1 <0>         0.4066
@<TRIPOS>BOND
     1    1    6 ar
     2    1    2 ar
     3    1   34 1
     4    2    3 ar
     5    2   35 1
     6    3    4 ar
     7    3   22 1
     8    4    5 ar
     9    4   36 1
    10    5    6 ar
    11    5   37 1
    12    6    7 1
    13    7    8 1
    14    7   38 1
    15    7   39 1
    16    8    9 1
    17    8   40 1
    18    8   41 1
    19    9   19 1
    20    9   10 1
    21    9   42 1
    22   10   11 1
    23   10   43 1
    24   10   44 1
    25   11   12 1
    26   11   45 1
    27   11   46 1
    28   12   13 1
    29   12   47 1
    30   13   18 2
    31   13   14 1
    32   14   15 2
    33   14   48 1
    34   15   16 1
    35   15   21 1
    36   16   17 am
    37   16   59 1
    38   17   18 1
    39   17   20 2
    40   18   19 1
    41   19   49 1
    42   19   50 1
    43   21   51 1
    44   21   52 1
    45   22   23 2
    46   22   24 am
    47   24   25 1
    48   24   53 1
    49   25   26 1
    50   25   31 1
    51   25   54 1
    52   26   27 1
    53   26   55 1
    54   26   56 1
    55   27   28 1
    56   27   57 1
    57   27   58 1
    58   28   29 2
    59   28   30 1
    60   31   32 2
    61   31   33 1
@<TRIPOS>MOLECULE
CHEMBL140170__3
   59    61     0     0     0
SMALL
USER_CHARGES

@<TRIPOS>ATOM
      1 C1         -0.0167    1.3794    0.0096 C.ar      1 <0>        -0.1295
      2 C2          1.1667    2.0884    0.0021 C.ar      1 <0>        -0.0645
      3 C3          2.3848    1.4070   -0.0132 C.ar      1 <0>        -0.1131
      4 C4          2.3966    0.0113   -0.0208 C.ar      1 <0>        -0.0820
      5 C5          1.2061   -0.6856   -0.0132 C.ar      1 <0>        -0.1241
      6 C6          0.0021   -0.0041    0.0020 C.ar      1 <0>        -0.0746
      7 C7         -1.2946   -0.7719    0.0103 C.3       1 <0>        -0.0775
      8 C8         -1.7472   -1.0241   -1.4293 C.3       1 <0>        -0.1102
      9 C9         -3.0637   -1.8037   -1.4209 C.3       1 <0>        -0.0754
     10 C10        -4.1425   -0.9552   -0.7617 C.3       1 <0>        -0.1442
     11 C11        -5.4224   -1.7087   -0.4873 C.3       1 <0>         0.1423
     12 N1         -6.0496   -2.1350   -1.7489 N.pl3     1 <0>        -0.7812
     13 C12        -5.6077   -3.3123   -2.3264 C.2       1 <0>         0.3122
     14 C13        -6.4428   -4.4368   -2.3928 C.2       1 <0>        -0.3300
     15 C14        -5.9640   -5.5910   -2.9428 C.2       1 <0>         0.4503
     16 N2         -4.6871   -5.6627   -3.4176 N.am      1 <0>        -0.6321
     17 C15        -3.8696   -4.5917   -3.3804 C.2       1 <0>         0.5445
     18 C16        -4.3263   -3.3931   -2.8434 C.2       1 <0>        -0.2920
     19 C17        -3.4443   -2.1592   -2.8557 C.3       1 <0>        -0.0352
     20 O1         -2.7314   -4.6738   -3.8170 O.2       1 <0>        -0.5478
     21 N3         -6.7805   -6.6972   -3.0189 N.pl3     1 <0>        -0.8596
     22 C18         3.6569    2.1603   -0.0218 C.2       1 <0>         0.5438
     23 O2          3.6435    3.3757   -0.0155 O.2       1 <0>        -0.5544
     24 N4          4.8314    1.4994   -0.0366 N.am      1 <0>        -0.6756
     25 C19         6.0919    2.2459   -0.0451 C.3       1 <0>         0.0736
     26 C20         7.2027    1.3778    0.5494 C.3       1 <0>        -0.0824
     27 C21         6.9032    1.1060    2.0250 C.3       1 <0>        -0.1772
     28 C22         7.9973    0.2510    2.6105 C.2       1 <0>         0.4913
     29 O3          8.9302   -0.1078    1.9123 O.co2     1 <0>        -0.6975
     30 O4          7.9496   -0.0820    3.7824 O.co2     1 <0>        -0.7198
     31 C23         6.4472    2.6155   -1.4622 C.2       1 <0>         0.4983
     32 O5          7.0818    3.6322   -1.6861 O.co2     1 <0>        -0.7016
     33 O6          6.1002    1.8979   -2.3847 O.co2     1 <0>        -0.6981
     34 H1         -0.9598    1.9054    0.0260 H         1 <0>         0.1207
     35 H2          1.1508    3.1682    0.0077 H         1 <0>         0.1325
     36 H3          3.3358   -0.5219   -0.0330 H         1 <0>         0.1288
     37 H4          1.2138   -1.7656   -0.0191 H         1 <0>         0.1233
     38 H5         -1.1489   -1.7256    0.5176 H         1 <0>         0.0693
     39 H6         -2.0557   -0.1941    0.5345 H         1 <0>         0.0715
     40 H7         -1.8929   -0.0704   -1.9367 H         1 <0>         0.0642
     41 H8         -0.9861   -1.6019   -1.9536 H         1 <0>         0.0687
     42 H9         -2.9319   -2.7215   -0.8480 H         1 <0>         0.0651
     43 H10        -3.7553   -0.5705    0.1818 H         1 <0>         0.0720
     44 H11        -4.3680   -0.1106   -1.4128 H         1 <0>         0.0624
     45 H12        -5.2007   -2.5865    0.1195 H         1 <0>         0.0601
     46 H13        -6.1112   -1.0627    0.0571 H         1 <0>         0.0719
     47 H14        -6.7507   -1.6074   -2.1623 H         1 <0>         0.4009
     48 H15        -7.4528   -4.3905   -2.0130 H         1 <0>         0.1382
     49 H16        -3.9868   -1.3278   -3.3056 H         1 <0>         0.0637
     50 H17        -2.5419   -2.3620   -3.4326 H         1 <0>         0.0766
     51 H18        -7.6894   -6.6532   -2.6830 H         1 <0>         0.4193
     52 H19        -6.4467   -7.5204   -3.4085 H         1 <0>         0.4020
     53 H20         4.8421    0.5294   -0.0416 H         1 <0>         0.3915
     54 H21         5.9814    3.1523    0.5501 H         1 <0>         0.0777
     55 H22         7.2537    0.4325    0.0090 H         1 <0>         0.0602
     56 H23         8.1565    1.8981    0.4621 H         1 <0>         0.0726
     57 H24         6.8522    2.0513    2.5654 H         1 <0>         0.0527
     58 H25         5.9494    0.5857    2.1123 H         1 <0>         0.0512
     59 H26        -4.3621   -6.4983   -3.7878 H         1 <0>         0.4066
@<TRIPOS>BOND
     1    1    6 ar
     2    1    2 ar
     3    1   34 1
     4    2    3 ar
     5    2   35 1
     6    3    4 ar
     7    3   22 1
     8    4    5 ar
     9    4   36 1
    10    5    6 ar
    11    5   37 1
    12    6    7 1
    13    7    8 1
    14    7   38 1
    15    7   39 1
    16    8    9 1
    17    8   40 1
    18    8   41 1
    19    9   19 1
    20    9   10 1
    21    9   42 1
    22   10   11 1
    23   10   43 1
    24   10   44 1
    25   11   12 1
    26   11   45 1
    27   11   46 1
    28   12   13 1
    29   12   47 1
    30   13   18 2
    31   13   14 1
    32   14   15 2
    33   14   48 1
    34   15   16 1
    35   15   21 1
    36   16   17 am
    37   16   59 1
    38   17   18 1
    39   17   20 2
    40   18   19 1
    41   19   49 1
    42   19   50 1
    43   21   51 1
    44   21   52 1
    45   22   23 2
    46   22   24 am
    47   24   25 1
    48   24   53 1
    49   25   26 1
    50   25   31 1
    51   25   54 1
    52   26   27 1
    53   26   55 1
    54   26   56 1
    55   27   28 1
    56   27   57 1
    57   27   58 1
    58   28   29 2
    59   28   30 1
    60   31   32 2
    61   31   33 1
@<TRIPOS>MOLECULE
CHEMBL23278
   58    60     0     0     0
SMALL
USER_CHARGES

@<TRIPOS>ATOM
      1 C1         -0.0187    1.5258    0.0104 C.3       1 <0>        -0.1490
      2 C2          0.0021   -0.0041    0.0020 C.3       1 <0>        -0.0701
      3 C3         -1.4333   -0.5336    0.0129 C.3       1 <0>        -0.0754
      4 C4         -2.1247   -0.1373   -1.2662 C.ar      1 <0>        -0.0687
      5 C5         -2.8074    1.0641   -1.3363 C.ar      1 <0>        -0.1256
      6 C6         -3.4425    1.4329   -2.5042 C.ar      1 <0>        -0.0653
      7 C7         -3.3951    0.5911   -3.6165 C.ar      1 <0>        -0.1136
      8 C8         -2.7046   -0.6194   -3.5390 C.ar      1 <0>        -0.0831
      9 C9         -2.0691   -0.9737   -2.3669 C.ar      1 <0>        -0.1241
     10 C10        -4.0738    0.9798   -4.8711 C.2       1 <0>         0.5445
     11 O1         -4.6747    2.0344   -4.9356 O.2       1 <0>        -0.5547
     12 N1         -4.0262    0.1647   -5.9435 N.am      1 <0>        -0.6763
     13 C11        -4.6987    0.5498   -7.1867 C.3       1 <0>         0.0739
     14 C12        -5.0415   -0.7057   -7.9911 C.3       1 <0>        -0.0822
     15 C13        -6.0645   -1.5420   -7.2199 C.3       1 <0>        -0.1771
     16 C14        -6.4022   -2.7787   -8.0122 C.2       1 <0>         0.4913
     17 O2         -5.8736   -2.9730   -9.0936 O.co2     1 <0>        -0.6978
     18 O3         -7.2040   -3.5848   -7.5719 O.co2     1 <0>        -0.7200
     19 C15        -3.7865    1.4330   -7.9984 C.2       1 <0>         0.4981
     20 O4         -2.5774    1.2987   -7.9176 O.co2     1 <0>        -0.6977
     21 O5         -4.2577    2.2819   -8.7360 O.co2     1 <0>        -0.7023
     22 C16         0.7421   -0.5109    1.2415 C.3       1 <0>        -0.0576
     23 C17         2.1879   -0.0922    1.1696 C.2       1 <0>         0.0787
     24 N2          2.5953    0.5922    0.1580 N.2       1 <0>        -0.3782
     25 C18         3.8978    0.9702    0.0240 C.2       1 <0>        -0.2035
     26 C19         4.8819    0.3941    0.8398 C.2       1 <0>         0.4530
     27 N3          6.1524    0.7710    0.7177 N.2       1 <0>        -0.6143
     28 C20         6.5090    1.6706   -0.1784 C.2       1 <0>         0.6690
     29 N4          5.6032    2.2488   -1.0132 N.am      1 <0>        -0.6583
     30 C21         4.2952    1.9184   -0.9392 C.2       1 <0>         0.5698
     31 O6          3.4784    2.4282   -1.6884 O.2       1 <0>        -0.4979
     32 N5          7.8259    2.0328   -0.2708 N.pl3     1 <0>        -0.8158
     33 N6          4.4943   -0.5688    1.7526 N.pl3     1 <0>        -0.7057
     34 C22         3.1231   -0.4786    2.2864 C.3       1 <0>         0.1322
     35 H1          1.0039    1.9031    0.0027 H         1 <0>         0.0762
     36 H2         -0.5459    1.8868   -0.8726 H         1 <0>         0.0569
     37 H3         -0.5289    1.8773    0.9072 H         1 <0>         0.0372
     38 H4          0.5123   -0.3556   -0.8948 H         1 <0>         0.0799
     39 H5         -1.4190   -1.6203    0.0965 H         1 <0>         0.0687
     40 H6         -1.9701   -0.1109    0.8621 H         1 <0>         0.0688
     41 H7         -2.8436    1.7144   -0.4748 H         1 <0>         0.1211
     42 H8         -3.9754    2.3708   -2.5575 H         1 <0>         0.1315
     43 H9         -2.6643   -1.2753   -4.3961 H         1 <0>         0.1274
     44 H10        -1.5308   -1.9081   -2.3070 H         1 <0>         0.1219
     45 H11        -3.5467   -0.6769   -5.8920 H         1 <0>         0.3913
     46 H12        -5.6146    1.0919   -6.9515 H         1 <0>         0.0775
     47 H13        -5.4610   -0.4165   -8.9547 H         1 <0>         0.0722
     48 H14        -4.1374   -1.2935   -8.1501 H         1 <0>         0.0599
     49 H15        -5.6451   -1.8312   -6.2563 H         1 <0>         0.0514
     50 H16        -6.9686   -0.9543   -7.0609 H         1 <0>         0.0527
     51 H17         0.2852   -0.0874    2.1360 H         1 <0>         0.0814
     52 H18         0.6803   -1.5984    1.2822 H         1 <0>         0.0799
     53 H19         8.4825    1.6291    0.3181 H         1 <0>         0.4287
     54 H20         8.1025    2.6932   -0.9253 H         1 <0>         0.4177
     55 H21         5.1008   -1.2725    2.0319 H         1 <0>         0.4134
     56 H22         3.0832    0.2753    3.0727 H         1 <0>         0.0717
     57 H23         2.8266   -1.4460    2.6919 H         1 <0>         0.1014
     58 H24         5.8986    2.9028   -1.6659 H         1 <0>         0.4151
@<TRIPOS>BOND
     1    1    2 1
     2    1   35 1
     3    1   36 1
     4    1   37 1
     5    2    3 1
     6    2   22 1
     7    2   38 1
     8    3    4 1
     9    3   39 1
    10    3   40 1
    11    4    9 ar
    12    4    5 ar
    13    5    6 ar
    14    5   41 1
    15    6    7 ar
    16    6   42 1
    17    7    8 ar
    18    7   10 1
    19    8    9 ar
    20    8   43 1
    21    9   44 1
    22   10   11 2
    23   10   12 am
    24   12   13 1
    25   12   45 1
    26   13   14 1
    27   13   19 1
    28   13   46 1
    29   14   15 1
    30   14   47 1
    31   14   48 1
    32   15   16 1
    33   15   49 1
    34   15   50 1
    35   16   17 2
    36   16   18 1
    37   19   20 2
    38   19   21 1
    39   22   23 1
    40   22   51 1
    41   22   52 1
    42   23   34 1
    43   23   24 2
    44   24   25 1
    45   25   30 1
    46   25   26 2
    47   26   27 1
    48   26   33 1
    49   27   28 2
    50   28   29 1
    51   28   32 1
    52   29   30 am
    53   29   58 1
    54   30   31 2
    55   32   53 1
    56   32   54 1
    57   33   34 1
    58   33   55 1
    59   34   56 1
    60   34   57 1
@<TRIPOS>MOLECULE
CHEMBL23278__1
   58    60     0     0     0
SMALL
USER_CHARGES

@<TRIPOS>ATOM
      1 C1         -0.0187    1.5258    0.0104 C.3       1 <0>        -0.1487
      2 C2          0.0021   -0.0041    0.0020 C.3       1 <0>        -0.0702
      3 C3         -1.4333   -0.5336    0.0129 C.3       1 <0>        -0.0752
      4 C4         -2.1247   -0.1373   -1.2662 C.ar      1 <0>        -0.0696
      5 C5         -2.8074    1.0641   -1.3363 C.ar      1 <0>        -0.1254
      6 C6         -3.4425    1.4329   -2.5042 C.ar      1 <0>        -0.0656
      7 C7         -3.3951    0.5911   -3.6165 C.ar      1 <0>        -0.1113
      8 C8         -2.7046   -0.6194   -3.5390 C.ar      1 <0>        -0.0840
      9 C9         -2.0691   -0.9737   -2.3669 C.ar      1 <0>        -0.1243
     10 C10        -4.0738    0.9798   -4.8711 C.2       1 <0>         0.5515
     11 O1         -4.6747    2.0344   -4.9356 O.2       1 <0>        -0.5562
     12 N1         -4.0262    0.1647   -5.9435 N.am      1 <0>        -0.6768
     13 C11        -4.6987    0.5498   -7.1867 C.3       1 <0>         0.0727
     14 C12        -4.0245   -0.1493   -8.3689 C.3       1 <0>        -0.0799
     15 C13        -2.5886    0.3596   -8.5110 C.3       1 <0>        -0.1783
     16 C14        -1.9246   -0.3290   -9.6755 C.2       1 <0>         0.4913
     17 O2         -2.5425   -1.1506  -10.3309 O.co2     1 <0>        -0.6978
     18 O3         -0.7694   -0.0645   -9.9621 O.co2     1 <0>        -0.7203
     19 C15        -6.1478    0.1412   -7.1213 C.2       1 <0>         0.4961
     20 O4         -6.5788   -0.4197   -6.1283 O.co2     1 <0>        -0.6969
     21 O5         -6.8891    0.3716   -8.0615 O.co2     1 <0>        -0.7010
     22 C16         0.7421   -0.5109    1.2415 C.3       1 <0>        -0.0575
     23 C17         2.1879   -0.0922    1.1696 C.2       1 <0>         0.0783
     24 N2          2.5953    0.5922    0.1580 N.2       1 <0>        -0.3780
     25 C18         3.8978    0.9702    0.0240 C.2       1 <0>        -0.2037
     26 C19         4.8819    0.3941    0.8398 C.2       1 <0>         0.4533
     27 N3          6.1524    0.7710    0.7177 N.2       1 <0>        -0.6143
     28 C20         6.5090    1.6706   -0.1784 C.2       1 <0>         0.6693
     29 N4          5.6032    2.2488   -1.0132 N.am      1 <0>        -0.6582
     30 C21         4.2952    1.9184   -0.9392 C.2       1 <0>         0.5702
     31 O6          3.4784    2.4282   -1.6884 O.2       1 <0>        -0.4986
     32 N5          7.8259    2.0328   -0.2708 N.pl3     1 <0>        -0.8156
     33 N6          4.4943   -0.5688    1.7526 N.pl3     1 <0>        -0.7057
     34 C22         3.1231   -0.4786    2.2864 C.3       1 <0>         0.1323
     35 H1          1.0039    1.9031    0.0027 H         1 <0>         0.0761
     36 H2         -0.5459    1.8868   -0.8726 H         1 <0>         0.0567
     37 H3         -0.5289    1.8773    0.9072 H         1 <0>         0.0372
     38 H4          0.5123   -0.3556   -0.8948 H         1 <0>         0.0800
     39 H5         -1.4190   -1.6203    0.0965 H         1 <0>         0.0683
     40 H6         -1.9701   -0.1109    0.8621 H         1 <0>         0.0687
     41 H7         -2.8436    1.7144   -0.4748 H         1 <0>         0.1208
     42 H8         -3.9754    2.3708   -2.5575 H         1 <0>         0.1313
     43 H9         -2.6643   -1.2753   -4.3961 H         1 <0>         0.1264
     44 H10        -1.5308   -1.9081   -2.3070 H         1 <0>         0.1213
     45 H11        -3.5467   -0.6769   -5.8920 H         1 <0>         0.3891
     46 H12        -4.6313    1.6299   -7.3167 H         1 <0>         0.0775
     47 H13        -4.0132   -1.2255   -8.1963 H         1 <0>         0.0547
     48 H14        -4.5785    0.0663   -9.2825 H         1 <0>         0.0787
     49 H15        -2.6000    1.4358   -8.6837 H         1 <0>         0.0522
     50 H16        -2.0347    0.1440   -7.5974 H         1 <0>         0.0506
     51 H17         0.2852   -0.0874    2.1360 H         1 <0>         0.0812
     52 H18         0.6803   -1.5984    1.2822 H         1 <0>         0.0797
     53 H19         8.4825    1.6291    0.3181 H         1 <0>         0.4287
     54 H20         8.1025    2.6932   -0.9253 H         1 <0>         0.4178
     55 H21         5.1008   -1.2725    2.0319 H         1 <0>         0.4134
     56 H22         3.0832    0.2753    3.0727 H         1 <0>         0.0716
     57 H23         2.8266   -1.4460    2.6919 H         1 <0>         0.1013
     58 H24         5.8986    2.9028   -1.6659 H         1 <0>         0.4152
@<TRIPOS>BOND
     1    1    2 1
     2    1   35 1
     3    1   36 1
     4    1   37 1
     5    2    3 1
     6    2   22 1
     7    2   38 1
     8    3    4 1
     9    3   39 1
    10    3   40 1
    11    4    9 ar
    12    4    5 ar
    13    5    6 ar
    14    5   41 1
    15    6    7 ar
    16    6   42 1
    17    7    8 ar
    18    7   10 1
    19    8    9 ar
    20    8   43 1
    21    9   44 1
    22   10   11 2
    23   10   12 am
    24   12   13 1
    25   12   45 1
    26   13   14 1
    27   13   19 1
    28   13   46 1
    29   14   15 1
    30   14   47 1
    31   14   48 1
    32   15   16 1
    33   15   49 1
    34   15   50 1
    35   16   17 2
    36   16   18 1
    37   19   20 2
    38   19   21 1
    39   22   23 1
    40   22   51 1
    41   22   52 1
    42   23   34 1
    43   23   24 2
    44   24   25 1
    45   25   30 1
    46   25   26 2
    47   26   27 1
    48   26   33 1
    49   27   28 2
    50   28   29 1
    51   28   32 1
    52   29   30 am
    53   29   58 1
    54   30   31 2
    55   32   53 1
    56   32   54 1
    57   33   34 1
    58   33   55 1
    59   34   56 1
    60   34   57 1
@<TRIPOS>MOLECULE
CHEMBL23278__2
   58    60     0     0     0
SMALL
USER_CHARGES

@<TRIPOS>ATOM
      1 C1         -0.0187    1.5258    0.0104 C.3       1 <0>        -0.1485
      2 C2          0.0021   -0.0041    0.0020 C.3       1 <0>        -0.0701
      3 C3          0.7421   -0.5109    1.2415 C.3       1 <0>        -0.0753
      4 C4          2.1879   -0.0922    1.1696 C.ar      1 <0>        -0.0686
      5 C5          3.1141   -0.9169    0.5562 C.ar      1 <0>        -0.1281
      6 C6          4.4393   -0.5396    0.4870 C.ar      1 <0>        -0.0643
      7 C7          4.8448    0.6772    1.0375 C.ar      1 <0>        -0.1136
      8 C8          3.9054    1.5046    1.6549 C.ar      1 <0>        -0.0840
      9 C9          2.5824    1.1179    1.7123 C.ar      1 <0>        -0.1217
     10 C10         6.2634    1.0878    0.9673 C.2       1 <0>         0.5445
     11 O1          7.0794    0.3651    0.4294 O.2       1 <0>        -0.5548
     12 N1          6.6518    2.2634    1.4999 N.am      1 <0>        -0.6762
     13 C11         8.0575    2.6702    1.4304 C.3       1 <0>         0.0738
     14 C12         8.3640    3.6425    2.5713 C.3       1 <0>        -0.0822
     15 C13         8.2179    2.9187    3.9113 C.3       1 <0>        -0.1771
     16 C14         8.5198    3.8763    5.0350 C.2       1 <0>         0.4914
     17 O2          8.8237    5.0308    4.7871 O.co2     1 <0>        -0.6979
     18 O3          8.4602    3.4967    6.1921 O.co2     1 <0>        -0.7200
     19 C15         8.3199    3.3468    0.1096 C.2       1 <0>         0.4981
     20 O4          7.4274    3.9626   -0.4478 O.co2     1 <0>        -0.6977
     21 O5          9.4247    3.2784   -0.4015 O.co2     1 <0>        -0.7023
     22 C16        -1.4333   -0.5336    0.0129 C.3       1 <0>        -0.0576
     23 C17        -2.1247   -0.1373   -1.2662 C.2       1 <0>         0.0789
     24 N2         -1.4762    0.5406   -2.1481 N.2       1 <0>        -0.3781
     25 C18        -2.0599    0.9542   -3.3080 C.2       1 <0>        -0.2033
     26 C19        -3.4531    0.8916   -3.4524 C.2       1 <0>         0.4527
     27 N3         -4.0231    1.2844   -4.5890 N.2       1 <0>        -0.6143
     28 C20        -3.2963    1.7542   -5.5842 C.2       1 <0>         0.6689
     29 N4         -1.9425    1.8597   -5.4956 N.am      1 <0>        -0.6584
     30 C21        -1.2974    1.4726   -4.3733 C.2       1 <0>         0.5695
     31 O6         -0.0846    1.5699   -4.2844 O.2       1 <0>        -0.4973
     32 N5         -3.9208    2.1458   -6.7378 N.pl3     1 <0>        -0.8158
     33 N6         -4.2012    0.4247   -2.3879 N.pl3     1 <0>        -0.7058
     34 C22        -3.5576   -0.5485   -1.4869 C.3       1 <0>         0.1322
     35 H1          1.0039    1.9031    0.0027 H         1 <0>         0.0584
     36 H2         -0.5459    1.8868   -0.8726 H         1 <0>         0.0710
     37 H3         -0.5289    1.8773    0.9072 H         1 <0>         0.0385
     38 H4          0.5123   -0.3556   -0.8948 H         1 <0>         0.0817
     39 H5          0.2852   -0.0874    2.1360 H         1 <0>         0.0693
     40 H6          0.6803   -1.5984    1.2822 H         1 <0>         0.0685
     41 H7          2.7991   -1.8584    0.1310 H         1 <0>         0.1205
     42 H8          5.1613   -1.1844    0.0082 H         1 <0>         0.1315
     43 H9          4.2128    2.4473    2.0828 H         1 <0>         0.1275
     44 H10         1.8537    1.7591    2.1859 H         1 <0>         0.1225
     45 H11         6.0007    2.8401    1.9292 H         1 <0>         0.3913
     46 H12         8.6951    1.7909    1.5212 H         1 <0>         0.0774
     47 H13         9.3836    4.0138    2.4682 H         1 <0>         0.0722
     48 H14         7.6669    4.4795    2.5325 H         1 <0>         0.0600
     49 H15         7.1983    2.5474    4.0144 H         1 <0>         0.0514
     50 H16         8.9150    2.0817    3.9500 H         1 <0>         0.0526
     51 H17        -1.4190   -1.6203    0.0965 H         1 <0>         0.0815
     52 H18        -1.9701   -0.1109    0.8621 H         1 <0>         0.0797
     53 H19        -4.8851    2.0759   -6.8151 H         1 <0>         0.4286
     54 H20        -3.3988    2.4933   -7.4779 H         1 <0>         0.4177
     55 H21        -5.1126    0.7233   -2.2423 H         1 <0>         0.4132
     56 H22        -3.5869   -1.5412   -1.9361 H         1 <0>         0.0719
     57 H23        -4.0838   -0.5633   -0.5324 H         1 <0>         0.1012
     58 H24        -1.4372    2.2154   -6.2432 H         1 <0>         0.4151
@<TRIPOS>BOND
     1    1    2 1
     2    1   35 1
     3    1   36 1
     4    1   37 1
     5    2    3 1
     6    2   22 1
     7    2   38 1
     8    3    4 1
     9    3   39 1
    10    3   40 1
    11    4    9 ar
    12    4    5 ar
    13    5    6 ar
    14    5   41 1
    15    6    7 ar
    16    6   42 1
    17    7    8 ar
    18    7   10 1
    19    8    9 ar
    20    8   43 1
    21    9   44 1
    22   10   11 2
    23   10   12 am
    24   12   13 1
    25   12   45 1
    26   13   14 1
    27   13   19 1
    28   13   46 1
    29   14   15 1
    30   14   47 1
    31   14   48 1
    32   15   16 1
    33   15   49 1
    34   15   50 1
    35   16   17 2
    36   16   18 1
    37   19   20 2
    38   19   21 1
    39   22   23 1
    40   22   51 1
    41   22   52 1
    42   23   34 1
    43   23   24 2
    44   24   25 1
    45   25   30 1
    46   25   26 2
    47   26   27 1
    48   26   33 1
    49   27   28 2
    50   28   29 1
    51   28   32 1
    52   29   30 am
    53   29   58 1
    54   30   31 2
    55   32   53 1
    56   32   54 1
    57   33   34 1
    58   33   55 1
    59   34   56 1
    60   34   57 1
@<TRIPOS>MOLECULE
CHEMBL23278__3
   58    60     0     0     0
SMALL
USER_CHARGES

@<TRIPOS>ATOM
      1 C1         -0.0187    1.5258    0.0104 C.3       1 <0>        -0.1484
      2 C2          0.0021   -0.0041    0.0020 C.3       1 <0>        -0.0699
      3 C3          0.7421   -0.5109    1.2415 C.3       1 <0>        -0.0751
      4 C4          2.1879   -0.0922    1.1696 C.ar      1 <0>        -0.0696
      5 C5          3.1141   -0.9169    0.5562 C.ar      1 <0>        -0.1280
      6 C6          4.4393   -0.5396    0.4870 C.ar      1 <0>        -0.0645
      7 C7          4.8448    0.6772    1.0375 C.ar      1 <0>        -0.1112
      8 C8          3.9054    1.5046    1.6549 C.ar      1 <0>        -0.0849
      9 C9          2.5824    1.1179    1.7123 C.ar      1 <0>        -0.1219
     10 C10         6.2634    1.0878    0.9673 C.2       1 <0>         0.5515
     11 O1          7.0794    0.3651    0.4294 O.2       1 <0>        -0.5563
     12 N1          6.6518    2.2634    1.4999 N.am      1 <0>        -0.6767
     13 C11         8.0575    2.6702    1.4304 C.3       1 <0>         0.0728
     14 C12         8.1513    4.1955    1.5057 C.3       1 <0>        -0.0799
     15 C13         7.4908    4.8087    0.2693 C.3       1 <0>        -0.1783
     16 C14         7.5832    6.3111    0.3434 C.2       1 <0>         0.4914
     17 O2          8.1269    6.8421    1.2968 O.co2     1 <0>        -0.6979
     18 O3          7.1143    6.9955   -0.5499 O.co2     1 <0>        -0.7202
     19 C15         8.8138    2.0629    2.5837 C.2       1 <0>         0.4959
     20 O4          8.2326    1.3558    3.3891 O.co2     1 <0>        -0.6968
     21 O5         10.0070    2.2787    2.7114 O.co2     1 <0>        -0.7010
     22 C16        -1.4333   -0.5336    0.0129 C.3       1 <0>        -0.0576
     23 C17        -2.1247   -0.1373   -1.2662 C.2       1 <0>         0.0787
     24 N2         -1.4762    0.5406   -2.1481 N.2       1 <0>        -0.3780
     25 C18        -2.0599    0.9542   -3.3080 C.2       1 <0>        -0.2035
     26 C19        -3.4531    0.8916   -3.4524 C.2       1 <0>         0.4530
     27 N3         -4.0231    1.2844   -4.5890 N.2       1 <0>        -0.6143
     28 C20        -3.2963    1.7542   -5.5842 C.2       1 <0>         0.6691
     29 N4         -1.9425    1.8597   -5.4956 N.am      1 <0>        -0.6583
     30 C21        -1.2974    1.4726   -4.3733 C.2       1 <0>         0.5699
     31 O6         -0.0846    1.5699   -4.2844 O.2       1 <0>        -0.4980
     32 N5         -3.9208    2.1458   -6.7378 N.pl3     1 <0>        -0.8157
     33 N6         -4.2012    0.4247   -2.3879 N.pl3     1 <0>        -0.7058
     34 C22        -3.5576   -0.5485   -1.4869 C.3       1 <0>         0.1322
     35 H1          1.0039    1.9031    0.0027 H         1 <0>         0.0583
     36 H2         -0.5459    1.8868   -0.8726 H         1 <0>         0.0711
     37 H3         -0.5289    1.8773    0.9072 H         1 <0>         0.0384
     38 H4          0.5123   -0.3556   -0.8948 H         1 <0>         0.0816
     39 H5          0.2852   -0.0874    2.1360 H         1 <0>         0.0689
     40 H6          0.6803   -1.5984    1.2822 H         1 <0>         0.0683
     41 H7          2.7991   -1.8584    0.1310 H         1 <0>         0.1201
     42 H8          5.1613   -1.1844    0.0082 H         1 <0>         0.1312
     43 H9          4.2128    2.4473    2.0828 H         1 <0>         0.1264
     44 H10         1.8537    1.7591    2.1859 H         1 <0>         0.1219
     45 H11         6.0007    2.8401    1.9292 H         1 <0>         0.3891
     46 H12         8.4895    2.3256    0.4909 H         1 <0>         0.0775
     47 H13         7.6409    4.5471    2.4023 H         1 <0>         0.0547
     48 H14         9.1990    4.4936    1.5435 H         1 <0>         0.0787
     49 H15         8.0012    4.4571   -0.6274 H         1 <0>         0.0521
     50 H16         6.4431    4.5106    0.2315 H         1 <0>         0.0506
     51 H17        -1.4190   -1.6203    0.0965 H         1 <0>         0.0814
     52 H18        -1.9701   -0.1109    0.8621 H         1 <0>         0.0795
     53 H19        -4.8851    2.0759   -6.8151 H         1 <0>         0.4286
     54 H20        -3.3988    2.4933   -7.4779 H         1 <0>         0.4177
     55 H21        -5.1126    0.7233   -2.2423 H         1 <0>         0.4132
     56 H22        -3.5869   -1.5412   -1.9361 H         1 <0>         0.0718
     57 H23        -4.0838   -0.5633   -0.5324 H         1 <0>         0.1011
     58 H24        -1.4372    2.2154   -6.2432 H         1 <0>         0.4151
@<TRIPOS>BOND
     1    1    2 1
     2    1   35 1
     3    1   36 1
     4    1   37 1
     5    2    3 1
     6    2   22 1
     7    2   38 1
     8    3    4 1
     9    3   39 1
    10    3   40 1
    11    4    9 ar
    12    4    5 ar
    13    5    6 ar
    14    5   41 1
    15    6    7 ar
    16    6   42 1
    17    7    8 ar
    18    7   10 1
    19    8    9 ar
    20    8   43 1
    21    9   44 1
    22   10   11 2
    23   10   12 am
    24   12   13 1
    25   12   45 1
    26   13   14 1
    27   13   19 1
    28   13   46 1
    29   14   15 1
    30   14   47 1
    31   14   48 1
    32   15   16 1
    33   15   49 1
    34   15   50 1
    35   16   17 2
    36   16   18 1
    37   19   20 2
    38   19   21 1
    39   22   23 1
    40   22   51 1
    41   22   52 1
    42   23   34 1
    43   23   24 2
    44   24   25 1
    45   25   30 1
    46   25   26 2
    47   26   27 1
    48   26   33 1
    49   27   28 2
    50   28   29 1
    51   28   32 1
    52   29   30 am
    53   29   58 1
    54   30   31 2
    55   32   53 1
    56   32   54 1
    57   33   34 1
    58   33   55 1
    59   34   56 1
    60   34   57 1
@<TRIPOS>MOLECULE
CHEMBL170874
   51    53     0     0     0
SMALL
USER_CHARGES

@<TRIPOS>ATOM
      1 C1         -0.0167    1.3794    0.0096 C.ar      1 <0>        -0.1269
      2 C2          1.1667    2.0884    0.0021 C.ar      1 <0>        -0.0645
      3 C3          2.3848    1.4070   -0.0132 C.ar      1 <0>        -0.1079
      4 C4          2.3966    0.0113   -0.0208 C.ar      1 <0>        -0.0829
      5 C5          1.2061   -0.6856   -0.0132 C.ar      1 <0>        -0.1227
      6 C6          0.0021   -0.0041    0.0020 C.ar      1 <0>        -0.0800
      7 C7         -1.2946   -0.7719    0.0103 C.3       1 <0>        -0.0716
      8 C8         -1.7472   -1.0241   -1.4293 C.3       1 <0>        -0.0694
      9 C9         -3.0439   -1.7919   -1.4210 C.ar      1 <0>        -0.1687
     10 C10        -3.0336   -3.1759   -1.4228 C.ar      1 <0>         0.0210
     11 C11        -4.2612   -3.8379   -1.4150 C.ar      1 <0>        -0.2776
     12 C12        -5.4594   -3.0862   -1.4055 C.ar      1 <0>         0.3950
     13 N1         -5.4049   -1.7567   -1.4043 N.ar      1 <0>        -0.4866
     14 C13        -4.2547   -1.1164   -1.4058 C.ar      1 <0>         0.1773
     15 N2         -6.6373   -3.7402   -1.3975 N.2       1 <0>        -0.5773
     16 C14        -6.6990   -5.0488   -1.3983 C.2       1 <0>         0.6553
     17 N3         -5.5944   -5.8486   -1.4066 N.am      1 <0>        -0.6687
     18 C15        -4.3553   -5.3033   -1.4156 C.2       1 <0>         0.5734
     19 O1         -3.3579   -6.0007   -1.4240 O.2       1 <0>        -0.5001
     20 N4         -7.9340   -5.6430   -1.3898 N.pl3     1 <0>        -0.8213
     21 C16         3.6569    2.1603   -0.0218 C.2       1 <0>         0.5474
     22 O2          3.6435    3.3757   -0.0155 O.2       1 <0>        -0.5554
     23 N5          4.8314    1.4994   -0.0366 N.am      1 <0>        -0.6744
     24 C17         6.0919    2.2459   -0.0451 C.3       1 <0>         0.0725
     25 C18         7.1909    1.3839   -0.6698 C.3       1 <0>        -0.0812
     26 C19         6.8626    1.1271   -2.1419 C.3       1 <0>        -0.1775
     27 C20         7.9450    0.2781   -2.7573 C.2       1 <0>         0.4910
     28 O3          8.8913   -0.0876   -2.0810 O.co2     1 <0>        -0.6974
     29 O4          7.8745   -0.0430   -3.9313 O.co2     1 <0>        -0.7198
     30 C21         6.4748    2.6012    1.3685 C.2       1 <0>         0.4971
     31 O5          5.8674    2.1124    2.3058 O.co2     1 <0>        -0.6979
     32 O6          7.3921    3.3775    1.5748 O.co2     1 <0>        -0.7007
     33 H1         -0.9598    1.9054    0.0260 H         1 <0>         0.1229
     34 H2          1.1508    3.1682    0.0077 H         1 <0>         0.1336
     35 H3          3.3358   -0.5219   -0.0330 H         1 <0>         0.1290
     36 H4          1.2138   -1.7656   -0.0191 H         1 <0>         0.1237
     37 H5         -1.1489   -1.7256    0.5176 H         1 <0>         0.0725
     38 H6         -2.0557   -0.1941    0.5345 H         1 <0>         0.0736
     39 H7         -1.8929   -0.0704   -1.9367 H         1 <0>         0.0831
     40 H8         -0.9861   -1.6019   -1.9536 H         1 <0>         0.0817
     41 H9         -2.1042   -3.7260   -1.4305 H         1 <0>         0.1485
     42 H10        -4.2541   -0.0364   -1.4000 H         1 <0>         0.1684
     43 H11        -8.7352   -5.0963   -1.3834 H         1 <0>         0.4297
     44 H12        -8.0068   -6.6103   -1.3901 H         1 <0>         0.4138
     45 H13         4.8421    0.5294   -0.0416 H         1 <0>         0.3900
     46 H14         5.9699    3.1583   -0.6287 H         1 <0>         0.0784
     47 H15         8.1462    1.9034   -0.5958 H         1 <0>         0.0772
     48 H16         7.2523    0.4333   -0.1400 H         1 <0>         0.0565
     49 H17         5.9072    0.6076   -2.2159 H         1 <0>         0.0505
     50 H18         6.8012    2.0777   -2.6717 H         1 <0>         0.0527
     51 H19        -5.6971   -6.8131   -1.4065 H         1 <0>         0.4149
@<TRIPOS>BOND
     1    1    6 ar
     2    1    2 ar
     3    1   33 1
     4    2    3 ar
     5    2   34 1
     6    3    4 ar
     7    3   21 1
     8    4    5 ar
     9    4   35 1
    10    5    6 ar
    11    5   36 1
    12    6    7 1
    13    7    8 1
    14    7   37 1
    15    7   38 1
    16    8    9 1
    17    8   39 1
    18    8   40 1
    19    9   14 ar
    20    9   10 ar
    21   10   11 ar
    22   10   41 1
    23   11   18 1
    24   11   12 ar
    25   12   13 ar
    26   12   15 1
    27   13   14 ar
    28   14   42 1
    29   15   16 2
    30   16   17 1
    31   16   20 1
    32   17   18 am
    33   17   51 1
    34   18   19 2
    35   20   43 1
    36   20   44 1
    37   21   22 2
    38   21   23 am
    39   23   24 1
    40   23   45 1
    41   24   25 1
    42   24   30 1
    43   24   46 1
    44   25   26 1
    45   25   47 1
    46   25   48 1
    47   26   27 1
    48   26   49 1
    49   26   50 1
    50   27   28 2
    51   27   29 1
    52   30   31 2
    53   30   32 1
@<TRIPOS>MOLECULE
CHEMBL170874__1
   51    53     0     0     0
SMALL
USER_CHARGES

@<TRIPOS>ATOM
      1 C1         -0.0167    1.3794    0.0096 C.ar      1 <0>        -0.1269
      2 C2          1.1667    2.0884    0.0021 C.ar      1 <0>        -0.0643
      3 C3          2.3848    1.4070   -0.0132 C.ar      1 <0>        -0.1097
      4 C4          2.3966    0.0113   -0.0208 C.ar      1 <0>        -0.0826
      5 C5          1.2061   -0.6856   -0.0132 C.ar      1 <0>        -0.1226
      6 C6          0.0021   -0.0041    0.0020 C.ar      1 <0>        -0.0794
      7 C7         -1.2946   -0.7719    0.0103 C.3       1 <0>        -0.0717
      8 C8         -1.7472   -1.0241   -1.4293 C.3       1 <0>        -0.0696
      9 C9         -3.0439   -1.7919   -1.4210 C.ar      1 <0>        -0.1687
     10 C10        -3.0336   -3.1759   -1.4228 C.ar      1 <0>         0.0210
     11 C11        -4.2612   -3.8379   -1.4150 C.ar      1 <0>        -0.2776
     12 C12        -5.4594   -3.0862   -1.4055 C.ar      1 <0>         0.3950
     13 N1         -5.4049   -1.7567   -1.4043 N.ar      1 <0>        -0.4865
     14 C13        -4.2547   -1.1164   -1.4058 C.ar      1 <0>         0.1774
     15 N2         -6.6373   -3.7402   -1.3975 N.2       1 <0>        -0.5774
     16 C14        -6.6990   -5.0488   -1.3983 C.2       1 <0>         0.6553
     17 N3         -5.5944   -5.8486   -1.4066 N.am      1 <0>        -0.6687
     18 C15        -4.3553   -5.3033   -1.4156 C.2       1 <0>         0.5735
     19 O1         -3.3579   -6.0007   -1.4240 O.2       1 <0>        -0.5002
     20 N4         -7.9340   -5.6430   -1.3898 N.pl3     1 <0>        -0.8213
     21 C16         3.6569    2.1603   -0.0218 C.2       1 <0>         0.5427
     22 O2          3.6435    3.3757   -0.0155 O.2       1 <0>        -0.5531
     23 N5          4.8314    1.4994   -0.0366 N.am      1 <0>        -0.6751
     24 C17         6.0919    2.2459   -0.0451 C.3       1 <0>         0.0734
     25 C18         7.2027    1.3778    0.5494 C.3       1 <0>        -0.0825
     26 C19         6.9032    1.1060    2.0250 C.3       1 <0>        -0.1772
     27 C20         7.9973    0.2510    2.6105 C.2       1 <0>         0.4911
     28 O3          8.9302   -0.1078    1.9123 O.co2     1 <0>        -0.6975
     29 O4          7.9496   -0.0820    3.7824 O.co2     1 <0>        -0.7196
     30 C21         6.4472    2.6155   -1.4622 C.2       1 <0>         0.4984
     31 O5          7.0818    3.6322   -1.6861 O.co2     1 <0>        -0.7009
     32 O6          6.1002    1.8979   -2.3847 O.co2     1 <0>        -0.6986
     33 H1         -0.9598    1.9054    0.0260 H         1 <0>         0.1231
     34 H2          1.1508    3.1682    0.0077 H         1 <0>         0.1338
     35 H3          3.3358   -0.5219   -0.0330 H         1 <0>         0.1297
     36 H4          1.2138   -1.7656   -0.0191 H         1 <0>         0.1240
     37 H5         -1.1489   -1.7256    0.5176 H         1 <0>         0.0728
     38 H6         -2.0557   -0.1941    0.5345 H         1 <0>         0.0737
     39 H7         -1.8929   -0.0704   -1.9367 H         1 <0>         0.0833
     40 H8         -0.9861   -1.6019   -1.9536 H         1 <0>         0.0816
     41 H9         -2.1042   -3.7260   -1.4305 H         1 <0>         0.1485
     42 H10        -4.2541   -0.0364   -1.4000 H         1 <0>         0.1685
     43 H11        -8.7352   -5.0963   -1.3834 H         1 <0>         0.4298
     44 H12        -8.0068   -6.6103   -1.3901 H         1 <0>         0.4138
     45 H13         4.8421    0.5294   -0.0416 H         1 <0>         0.3915
     46 H14         5.9814    3.1523    0.5501 H         1 <0>         0.0780
     47 H15         7.2537    0.4325    0.0090 H         1 <0>         0.0602
     48 H16         8.1565    1.8981    0.4621 H         1 <0>         0.0728
     49 H17         6.8522    2.0513    2.5654 H         1 <0>         0.0528
     50 H18         5.9494    0.5857    2.1123 H         1 <0>         0.0510
     51 H19        -5.6971   -6.8131   -1.4065 H         1 <0>         0.4149
@<TRIPOS>BOND
     1    1    6 ar
     2    1    2 ar
     3    1   33 1
     4    2    3 ar
     5    2   34 1
     6    3    4 ar
     7    3   21 1
     8    4    5 ar
     9    4   35 1
    10    5    6 ar
    11    5   36 1
    12    6    7 1
    13    7    8 1
    14    7   37 1
    15    7   38 1
    16    8    9 1
    17    8   39 1
    18    8   40 1
    19    9   14 ar
    20    9   10 ar
    21   10   11 ar
    22   10   41 1
    23   11   18 1
    24   11   12 ar
    25   12   13 ar
    26   12   15 1
    27   13   14 ar
    28   14   42 1
    29   15   16 2
    30   16   17 1
    31   16   20 1
    32   17   18 am
    33   17   51 1
    34   18   19 2
    35   20   43 1
    36   20   44 1
    37   21   22 2
    38   21   23 am
    39   23   24 1
    40   23   45 1
    41   24   25 1
    42   24   30 1
    43   24   46 1
    44   25   26 1
    45   25   47 1
    46   25   48 1
    47   26   27 1
    48   26   49 1
    49   26   50 1
    50   27   28 2
    51   27   29 1
    52   30   31 2
    53   30   32 1
@<TRIPOS>MOLECULE
CHEMBL66389
   58    60     0     0     0
SMALL
USER_CHARGES

@<TRIPOS>ATOM
      1 C1         -0.0187    1.5258    0.0104 C.3       1 <0>        -0.1452
      2 C2          0.0021   -0.0041    0.0020 C.3       1 <0>         0.0043
      3 C3         -1.4103   -0.5209   -0.0094 C.2       1 <0>        -0.3832
      4 C4         -2.0318   -0.9708    1.1415 C.2       1 <0>         0.4836
      5 N1         -3.2942   -1.4170    1.0847 N.2       1 <0>        -0.6231
      6 C5         -3.9575   -1.4418   -0.0514 C.2       1 <0>         0.6587
      7 N2         -3.3888   -1.0156   -1.2121 N.am      1 <0>        -0.6623
      8 C6         -2.1224   -0.5512   -1.2147 C.2       1 <0>         0.5550
      9 O1         -1.6056   -0.1636   -2.2508 O.2       1 <0>        -0.5481
     10 N3         -5.2456   -1.9061   -0.0662 N.pl3     1 <0>        -0.8240
     11 N4         -1.3664   -0.9725    2.3529 N.pl3     1 <0>        -0.7064
     12 C7         -0.1147   -0.2144    2.4809 C.3       1 <0>         0.1226
     13 C8          0.7424   -0.5070    1.2422 C.3       1 <0>        -0.0980
     14 C9          2.0858    0.2148    1.3657 C.3       1 <0>        -0.1097
     15 C10         2.8774   -0.3773    2.5334 C.3       1 <0>        -0.0782
     16 C11         4.2006    0.3337    2.6550 C.ar      1 <0>        -0.0772
     17 C12         5.3020   -0.1379    1.9630 C.ar      1 <0>        -0.1282
     18 C13         6.5162    0.5083    2.0699 C.ar      1 <0>        -0.0642
     19 C14         6.6320    1.6402    2.8784 C.ar      1 <0>        -0.1096
     20 C15         5.5170    2.1106    3.5738 C.ar      1 <0>        -0.0830
     21 C16         4.3073    1.4584    3.4537 C.ar      1 <0>        -0.1241
     22 C17         7.9303    2.3374    2.9981 C.2       1 <0>         0.5477
     23 O2          8.8997    1.9251    2.3916 O.2       1 <0>        -0.5558
     24 N5          8.0389    3.4300    3.7796 N.am      1 <0>        -0.6746
     25 C18         9.3253    4.1209    3.8982 C.3       1 <0>         0.0725
     26 C19         9.3783    4.8754    5.2281 C.3       1 <0>        -0.0811
     27 C20         9.3487    3.8738    6.3843 C.3       1 <0>        -0.1775
     28 C21         9.4008    4.6170    7.6943 C.2       1 <0>         0.4911
     29 O3          9.4565    5.8349    7.7024 O.co2     1 <0>        -0.6973
     30 O4          9.3873    4.0004    8.7460 O.co2     1 <0>        -0.7201
     31 C22         9.4779    5.0971    2.7603 C.2       1 <0>         0.4970
     32 O5          8.5290    5.3406    2.0345 O.co2     1 <0>        -0.6975
     33 O6         10.5504    5.6434    2.5656 O.co2     1 <0>        -0.7009
     34 H1          1.0039    1.9031    0.0027 H         1 <0>         0.0620
     35 H2         -0.5459    1.8868   -0.8726 H         1 <0>         0.0532
     36 H3         -0.5289    1.8773    0.9072 H         1 <0>         0.0475
     37 H4          0.5183   -0.3529   -0.8924 H         1 <0>         0.0785
     38 H5         -5.6602   -2.2125    0.7554 H         1 <0>         0.4270
     39 H6         -5.7435   -1.9286   -0.8984 H         1 <0>         0.4138
     40 H7         -1.7209   -1.4677    3.1079 H         1 <0>         0.4068
     41 H8         -0.3334    0.8520    2.5350 H         1 <0>         0.0726
     42 H9          0.4165   -0.5287    3.3793 H         1 <0>         0.0914
     43 H10         0.9085   -1.5810    1.1582 H         1 <0>         0.0772
     44 H11         2.6517    0.0897    0.4425 H         1 <0>         0.0732
     45 H12         1.9129    1.2760    1.5448 H         1 <0>         0.0750
     46 H13         2.3115   -0.2521    3.4566 H         1 <0>         0.0707
     47 H14         3.0503   -1.4384    2.3542 H         1 <0>         0.0703
     48 H15         5.2111   -1.0139    1.3380 H         1 <0>         0.1212
     49 H16         7.3752    0.1390    1.5295 H         1 <0>         0.1326
     50 H17         5.6001    2.9859    4.2011 H         1 <0>         0.1284
     51 H18         3.4427    1.8240    3.9878 H         1 <0>         0.1229
     52 H19         7.2653    3.7590    4.2636 H         1 <0>         0.3899
     53 H20        10.1342    3.3912    3.8620 H         1 <0>         0.0782
     54 H21        10.2966    5.4604    5.2776 H         1 <0>         0.0771
     55 H22         8.5187    5.5416    5.3024 H         1 <0>         0.0564
     56 H23         8.4303    3.2888    6.3348 H         1 <0>         0.0505
     57 H24        10.2082    3.2077    6.3100 H         1 <0>         0.0526
     58 H25        -3.8952   -1.0457   -2.0389 H         1 <0>         0.4077
@<TRIPOS>BOND
     1    1    2 1
     2    1   34 1
     3    1   35 1
     4    1   36 1
     5    2   13 1
     6    2    3 1
     7    2   37 1
     8    3    8 1
     9    3    4 2
    10    4    5 1
    11    4   11 1
    12    5    6 2
    13    6    7 1
    14    6   10 1
    15    7    8 am
    16    7   58 1
    17    8    9 2
    18   10   38 1
    19   10   39 1
    20   11   12 1
    21   11   40 1
    22   12   13 1
    23   12   41 1
    24   12   42 1
    25   13   14 1
    26   13   43 1
    27   14   15 1
    28   14   44 1
    29   14   45 1
    30   15   16 1
    31   15   46 1
    32   15   47 1
    33   16   21 ar
    34   16   17 ar
    35   17   18 ar
    36   17   48 1
    37   18   19 ar
    38   18   49 1
    39   19   20 ar
    40   19   22 1
    41   20   21 ar
    42   20   50 1
    43   21   51 1
    44   22   23 2
    45   22   24 am
    46   24   25 1
    47   24   52 1
    48   25   26 1
    49   25   31 1
    50   25   53 1
    51   26   27 1
    52   26   54 1
    53   26   55 1
    54   27   28 1
    55   27   56 1
    56   27   57 1
    57   28   29 2
    58   28   30 1
    59   31   32 2
    60   31   33 1
@<TRIPOS>MOLECULE
CHEMBL66389__1
   58    60     0     0     0
SMALL
USER_CHARGES

@<TRIPOS>ATOM
      1 C1         -0.0187    1.5258    0.0104 C.3       1 <0>        -0.1447
      2 C2          0.0021   -0.0041    0.0020 C.3       1 <0>        -0.0031
      3 C3         -1.4106   -0.5208   -0.0105 C.2       1 <0>        -0.3371
      4 C4         -2.0256   -0.9622    1.1195 C.2       1 <0>         0.4448
      5 N1         -3.3190   -1.4134    1.0459 N.pl3     1 <0>        -0.6548
      6 C5         -3.9739   -1.4230   -0.1471 C.2       1 <0>         0.6579
      7 N2         -3.3882   -1.0028   -1.2476 N.2       1 <0>        -0.6358
      8 C6         -2.1250   -0.5503   -1.2276 C.2       1 <0>         0.5450
      9 O1         -1.5951   -0.1643   -2.2596 O.2       1 <0>        -0.5262
     10 N3         -5.2648   -1.8775   -0.2028 N.pl3     1 <0>        -0.8259
     11 N4         -1.3757   -0.9710    2.3324 N.pl3     1 <0>        -0.7312
     12 C7         -0.1210   -0.2209    2.4785 C.3       1 <0>         0.1277
     13 C8          0.7425   -0.5068    1.2423 C.3       1 <0>        -0.1006
     14 C9          2.0815    0.2219    1.3716 C.3       1 <0>        -0.1104
     15 C10         2.8735   -0.3697    2.5393 C.3       1 <0>        -0.0775
     16 C11         4.1924    0.3481    2.6667 C.ar      1 <0>        -0.0784
     17 C12         5.2981   -0.1151    1.9758 C.ar      1 <0>        -0.1277
     18 C13         6.5085    0.5374    2.0880 C.ar      1 <0>        -0.0639
     19 C14         6.6160    1.6671    2.9007 C.ar      1 <0>        -0.1087
     20 C15         5.4967    2.1291    3.5949 C.ar      1 <0>        -0.0831
     21 C16         4.2909    1.4706    3.4695 C.ar      1 <0>        -0.1242
     22 C17         7.9101    2.3710    3.0260 C.2       1 <0>         0.5473
     23 O2          8.8833    1.9662    2.4206 O.2       1 <0>        -0.5552
     24 N5          8.0107    3.4616    3.8115 N.am      1 <0>        -0.6745
     25 C18         9.2930    4.1591    3.9357 C.3       1 <0>         0.0725
     26 C19         9.3385    4.9094    5.2683 C.3       1 <0>        -0.0811
     27 C20         9.3115    3.9037    6.4210 C.3       1 <0>        -0.1775
     28 C21         9.3563    4.6428    7.7336 C.2       1 <0>         0.4911
     29 O3          9.4053    5.8609    7.7459 O.co2     1 <0>        -0.6971
     30 O4          9.3436    4.0225    8.7831 O.co2     1 <0>        -0.7202
     31 C22         9.4431    5.1400    2.8015 C.2       1 <0>         0.4969
     32 O5          8.4947    5.3808    2.0741 O.co2     1 <0>        -0.6974
     33 O6         10.5130    5.6929    2.6113 O.co2     1 <0>        -0.7007
     34 H1          1.0039    1.9031    0.0027 H         1 <0>         0.0645
     35 H2         -0.5459    1.8868   -0.8726 H         1 <0>         0.0579
     36 H3         -0.5289    1.8773    0.9072 H         1 <0>         0.0466
     37 H4          0.5186   -0.3527   -0.8923 H         1 <0>         0.0864
     38 H5         -5.7046   -2.1889    0.6038 H         1 <0>         0.4087
     39 H6         -5.7393   -1.8879   -1.0488 H         1 <0>         0.4302
     40 H7         -1.7413   -1.4667    3.0816 H         1 <0>         0.4017
     41 H8         -0.3339    0.8463    2.5411 H         1 <0>         0.0752
     42 H9          0.4017   -0.5472    3.3776 H         1 <0>         0.0941
     43 H10         0.9139   -1.5798    1.1561 H         1 <0>         0.0784
     44 H11         2.6504    0.1030    0.4495 H         1 <0>         0.0752
     45 H12         1.9024    1.2815    1.5539 H         1 <0>         0.0759
     46 H13         2.3046   -0.2508    3.4615 H         1 <0>         0.0695
     47 H14         3.0526   -1.4293    2.3570 H         1 <0>         0.0703
     48 H15         5.2136   -0.9895    1.3477 H         1 <0>         0.1215
     49 H16         7.3709    0.1747    1.5485 H         1 <0>         0.1331
     50 H17         5.5734    3.0026    4.2253 H         1 <0>         0.1285
     51 H18         3.4230    1.8296    4.0026 H         1 <0>         0.1224
     52 H19         7.2341    3.7846    4.2946 H         1 <0>         0.3898
     53 H20        10.1061    3.4341    3.8990 H         1 <0>         0.0782
     54 H21        10.2535    5.4993    5.3221 H         1 <0>         0.0772
     55 H22         8.4751    5.5706    5.3426 H         1 <0>         0.0564
     56 H23         8.3965    3.3139    6.3672 H         1 <0>         0.0503
     57 H24        10.1749    3.2426    6.3466 H         1 <0>         0.0526
     58 H25        -3.7680   -1.7268    1.8466 H         1 <0>         0.4094
@<TRIPOS>BOND
     1    1    2 1
     2    1   34 1
     3    1   35 1
     4    1   36 1
     5    2   13 1
     6    2    3 1
     7    2   37 1
     8    3    8 1
     9    3    4 2
    10    4    5 1
    11    4   11 1
    12    5    6 1
    13    5   58 1
    14    6    7 2
    15    6   10 1
    16    7    8 1
    17    8    9 2
    18   10   38 1
    19   10   39 1
    20   11   12 1
    21   11   40 1
    22   12   13 1
    23   12   41 1
    24   12   42 1
    25   13   14 1
    26   13   43 1
    27   14   15 1
    28   14   44 1
    29   14   45 1
    30   15   16 1
    31   15   46 1
    32   15   47 1
    33   16   21 ar
    34   16   17 ar
    35   17   18 ar
    36   17   48 1
    37   18   19 ar
    38   18   49 1
    39   19   20 ar
    40   19   22 1
    41   20   21 ar
    42   20   50 1
    43   21   51 1
    44   22   23 2
    45   22   24 am
    46   24   25 1
    47   24   52 1
    48   25   26 1
    49   25   31 1
    50   25   53 1
    51   26   27 1
    52   26   54 1
    53   26   55 1
    54   27   28 1
    55   27   56 1
    56   27   57 1
    57   28   29 2
    58   28   30 1
    59   31   32 2
    60   31   33 1
@<TRIPOS>MOLECULE
CHEMBL66389__2
   58    60     0     0     0
SMALL
USER_CHARGES

@<TRIPOS>ATOM
      1 C1         -0.0187    1.5258    0.0104 C.3       1 <0>        -0.1453
      2 C2          0.0021   -0.0041    0.0020 C.3       1 <0>         0.0043
      3 C3         -1.4103   -0.5209   -0.0094 C.2       1 <0>        -0.3831
      4 C4         -2.0318   -0.9708    1.1415 C.2       1 <0>         0.4836
      5 N1         -3.2942   -1.4170    1.0847 N.2       1 <0>        -0.6232
      6 C5         -3.9575   -1.4418   -0.0514 C.2       1 <0>         0.6588
      7 N2         -3.3888   -1.0156   -1.2121 N.am      1 <0>        -0.6622
      8 C6         -2.1224   -0.5512   -1.2147 C.2       1 <0>         0.5551
      9 O1         -1.6056   -0.1636   -2.2508 O.2       1 <0>        -0.5480
     10 N3         -5.2456   -1.9061   -0.0662 N.pl3     1 <0>        -0.8240
     11 N4         -1.3664   -0.9725    2.3529 N.pl3     1 <0>        -0.7064
     12 C7         -0.1147   -0.2144    2.4809 C.3       1 <0>         0.1226
     13 C8          0.7424   -0.5070    1.2422 C.3       1 <0>        -0.0980
     14 C9          2.0858    0.2148    1.3657 C.3       1 <0>        -0.1096
     15 C10         2.8774   -0.3773    2.5334 C.3       1 <0>        -0.0785
     16 C11         4.2006    0.3337    2.6550 C.ar      1 <0>        -0.0764
     17 C12         5.3020   -0.1379    1.9630 C.ar      1 <0>        -0.1283
     18 C13         6.5162    0.5083    2.0699 C.ar      1 <0>        -0.0639
     19 C14         6.6320    1.6402    2.8784 C.ar      1 <0>        -0.1114
     20 C15         5.5170    2.1106    3.5738 C.ar      1 <0>        -0.0826
     21 C16         4.3073    1.4584    3.4537 C.ar      1 <0>        -0.1241
     22 C17         7.9303    2.3374    2.9981 C.2       1 <0>         0.5430
     23 O2          8.8997    1.9251    2.3916 O.2       1 <0>        -0.5535
     24 N5          8.0389    3.4300    3.7796 N.am      1 <0>        -0.6753
     25 C18         9.3253    4.1209    3.8982 C.3       1 <0>         0.0734
     26 C19         9.0856    5.5831    4.2794 C.3       1 <0>        -0.0823
     27 C20         8.3486    6.2925    3.1417 C.3       1 <0>        -0.1773
     28 C21         8.1125    7.7328    3.5172 C.2       1 <0>         0.4912
     29 O3          8.4981    8.1529    4.5948 O.co2     1 <0>        -0.6978
     30 O4          7.5360    8.4779    2.7433 O.co2     1 <0>        -0.7193
     31 C22        10.1573    3.4540    4.9631 C.2       1 <0>         0.4985
     32 O5         11.3737    3.4623    4.8806 O.co2     1 <0>        -0.7011
     33 O6          9.6141    2.9063    5.9072 O.co2     1 <0>        -0.6989
     34 H1          1.0039    1.9031    0.0027 H         1 <0>         0.0618
     35 H2         -0.5459    1.8868   -0.8726 H         1 <0>         0.0534
     36 H3         -0.5289    1.8773    0.9072 H         1 <0>         0.0477
     37 H4          0.5183   -0.3529   -0.8924 H         1 <0>         0.0784
     38 H5         -5.6602   -2.2125    0.7554 H         1 <0>         0.4270
     39 H6         -5.7435   -1.9286   -0.8984 H         1 <0>         0.4138
     40 H7         -1.7209   -1.4677    3.1079 H         1 <0>         0.4068
     41 H8         -0.3334    0.8520    2.5350 H         1 <0>         0.0727
     42 H9          0.4165   -0.5287    3.3793 H         1 <0>         0.0913
     43 H10         0.9085   -1.5810    1.1582 H         1 <0>         0.0772
     44 H11         2.6517    0.0897    0.4425 H         1 <0>         0.0730
     45 H12         1.9129    1.2760    1.5448 H         1 <0>         0.0751
     46 H13         2.3115   -0.2521    3.4566 H         1 <0>         0.0708
     47 H14         3.0503   -1.4384    2.3542 H         1 <0>         0.0705
     48 H15         5.2111   -1.0139    1.3380 H         1 <0>         0.1215
     49 H16         7.3752    0.1390    1.5295 H         1 <0>         0.1329
     50 H17         5.6001    2.9859    4.2011 H         1 <0>         0.1290
     51 H18         3.4427    1.8240    3.9878 H         1 <0>         0.1232
     52 H19         7.2653    3.7590    4.2636 H         1 <0>         0.3913
     53 H20         9.8513    4.0755    2.9446 H         1 <0>         0.0779
     54 H21         8.4829    5.6281    5.1865 H         1 <0>         0.0601
     55 H22        10.0427    6.0745    4.4544 H         1 <0>         0.0726
     56 H23         8.9513    6.2476    2.2346 H         1 <0>         0.0528
     57 H24         7.3915    5.8011    2.9667 H         1 <0>         0.0511
     58 H25        -3.8952   -1.0457   -2.0389 H         1 <0>         0.4078
@<TRIPOS>BOND
     1    1    2 1
     2    1   34 1
     3    1   35 1
     4    1   36 1
     5    2   13 1
     6    2    3 1
     7    2   37 1
     8    3    8 1
     9    3    4 2
    10    4    5 1
    11    4   11 1
    12    5    6 2
    13    6    7 1
    14    6   10 1
    15    7    8 am
    16    7   58 1
    17    8    9 2
    18   10   38 1
    19   10   39 1
    20   11   12 1
    21   11   40 1
    22   12   13 1
    23   12   41 1
    24   12   42 1
    25   13   14 1
    26   13   43 1
    27   14   15 1
    28   14   44 1
    29   14   45 1
    30   15   16 1
    31   15   46 1
    32   15   47 1
    33   16   21 ar
    34   16   17 ar
    35   17   18 ar
    36   17   48 1
    37   18   19 ar
    38   18   49 1
    39   19   20 ar
    40   19   22 1
    41   20   21 ar
    42   20   50 1
    43   21   51 1
    44   22   23 2
    45   22   24 am
    46   24   25 1
    47   24   52 1
    48   25   26 1
    49   25   31 1
    50   25   53 1
    51   26   27 1
    52   26   54 1
    53   26   55 1
    54   27   28 1
    55   27   56 1
    56   27   57 1
    57   28   29 2
    58   28   30 1
    59   31   32 2
    60   31   33 1
@<TRIPOS>MOLECULE
CHEMBL66389__3
   58    60     0     0     0
SMALL
USER_CHARGES

@<TRIPOS>ATOM
      1 C1         -0.0187    1.5258    0.0104 C.3       1 <0>        -0.1448
      2 C2          0.0021   -0.0041    0.0020 C.3       1 <0>        -0.0030
      3 C3         -1.4106   -0.5208   -0.0105 C.2       1 <0>        -0.3370
      4 C4         -2.0256   -0.9622    1.1195 C.2       1 <0>         0.4448
      5 N1         -3.3190   -1.4134    1.0459 N.pl3     1 <0>        -0.6548
      6 C5         -3.9739   -1.4230   -0.1471 C.2       1 <0>         0.6579
      7 N2         -3.3882   -1.0028   -1.2476 N.2       1 <0>        -0.6357
      8 C6         -2.1250   -0.5503   -1.2276 C.2       1 <0>         0.5450
      9 O1         -1.5951   -0.1643   -2.2596 O.2       1 <0>        -0.5261
     10 N3         -5.2648   -1.8775   -0.2028 N.pl3     1 <0>        -0.8259
     11 N4         -1.3757   -0.9710    2.3324 N.pl3     1 <0>        -0.7312
     12 C7         -0.1210   -0.2209    2.4785 C.3       1 <0>         0.1277
     13 C8          0.7425   -0.5068    1.2423 C.3       1 <0>        -0.1006
     14 C9          2.0815    0.2219    1.3716 C.3       1 <0>        -0.1103
     15 C10         2.8735   -0.3697    2.5393 C.3       1 <0>        -0.0777
     16 C11         4.1924    0.3481    2.6667 C.ar      1 <0>        -0.0776
     17 C12         5.2981   -0.1151    1.9758 C.ar      1 <0>        -0.1278
     18 C13         6.5085    0.5374    2.0880 C.ar      1 <0>        -0.0636
     19 C14         6.6160    1.6671    2.9007 C.ar      1 <0>        -0.1105
     20 C15         5.4967    2.1291    3.5949 C.ar      1 <0>        -0.0826
     21 C16         4.2909    1.4706    3.4695 C.ar      1 <0>        -0.1241
     22 C17         7.9101    2.3710    3.0260 C.2       1 <0>         0.5427
     23 O2          8.8833    1.9662    2.4206 O.2       1 <0>        -0.5529
     24 N5          8.0107    3.4616    3.8115 N.am      1 <0>        -0.6752
     25 C18         9.2930    4.1591    3.9357 C.3       1 <0>         0.0734
     26 C19         9.0444    5.6187    4.3212 C.3       1 <0>        -0.0822
     27 C20         8.3062    6.3279    3.1840 C.3       1 <0>        -0.1773
     28 C21         8.0613    7.7656    3.5638 C.2       1 <0>         0.4911
     29 O3          8.4419    8.1842    4.6438 O.co2     1 <0>        -0.6979
     30 O4          7.4827    8.5102    2.7910 O.co2     1 <0>        -0.7191
     31 C22        10.1260    3.4932    5.0004 C.2       1 <0>         0.4985
     32 O5         11.3426    3.5084    4.9209 O.co2     1 <0>        -0.7008
     33 O6          9.5835    2.9393    5.9413 O.co2     1 <0>        -0.6992
     34 H1          1.0039    1.9031    0.0027 H         1 <0>         0.0643
     35 H2         -0.5459    1.8868   -0.8726 H         1 <0>         0.0581
     36 H3         -0.5289    1.8773    0.9072 H         1 <0>         0.0468
     37 H4          0.5186   -0.3527   -0.8923 H         1 <0>         0.0863
     38 H5         -5.7046   -2.1889    0.6038 H         1 <0>         0.4087
     39 H6         -5.7393   -1.8879   -1.0488 H         1 <0>         0.4302
     40 H7         -1.7413   -1.4667    3.0816 H         1 <0>         0.4016
     41 H8         -0.3339    0.8463    2.5411 H         1 <0>         0.0754
     42 H9          0.4017   -0.5472    3.3776 H         1 <0>         0.0939
     43 H10         0.9139   -1.5798    1.1561 H         1 <0>         0.0783
     44 H11         2.6504    0.1030    0.4495 H         1 <0>         0.0751
     45 H12         1.9024    1.2815    1.5539 H         1 <0>         0.0761
     46 H13         2.3046   -0.2508    3.4615 H         1 <0>         0.0696
     47 H14         3.0526   -1.4293    2.3570 H         1 <0>         0.0704
     48 H15         5.2136   -0.9895    1.3477 H         1 <0>         0.1218
     49 H16         7.3709    0.1747    1.5485 H         1 <0>         0.1333
     50 H17         5.5734    3.0026    4.2253 H         1 <0>         0.1291
     51 H18         3.4230    1.8296    4.0026 H         1 <0>         0.1227
     52 H19         7.2341    3.7846    4.2946 H         1 <0>         0.3912
     53 H20         9.8217    4.1199    2.9832 H         1 <0>         0.0781
     54 H21         8.4392    5.6572    5.2269 H         1 <0>         0.0600
     55 H22         9.9983    6.1148    4.5002 H         1 <0>         0.0728
     56 H23         8.9115    6.2894    2.2783 H         1 <0>         0.0529
     57 H24         7.3523    5.8319    3.0050 H         1 <0>         0.0511
     58 H25        -3.7680   -1.7268    1.8466 H         1 <0>         0.4093
@<TRIPOS>BOND
     1    1    2 1
     2    1   34 1
     3    1   35 1
     4    1   36 1
     5    2   13 1
     6    2    3 1
     7    2   37 1
     8    3    8 1
     9    3    4 2
    10    4    5 1
    11    4   11 1
    12    5    6 1
    13    5   58 1
    14    6    7 2
    15    6   10 1
    16    7    8 1
    17    8    9 2
    18   10   38 1
    19   10   39 1
    20   11   12 1
    21   11   40 1
    22   12   13 1
    23   12   41 1
    24   12   42 1
    25   13   14 1
    26   13   43 1
    27   14   15 1
    28   14   44 1
    29   14   45 1
    30   15   16 1
    31   15   46 1
    32   15   47 1
    33   16   21 ar
    34   16   17 ar
    35   17   18 ar
    36   17   48 1
    37   18   19 ar
    38   18   49 1
    39   19   20 ar
    40   19   22 1
    41   20   21 ar
    42   20   50 1
    43   21   51 1
    44   22   23 2
    45   22   24 am
    46   24   25 1
    47   24   52 1
    48   25   26 1
    49   25   31 1
    50   25   53 1
    51   26   27 1
    52   26   54 1
    53   26   55 1
    54   27   28 1
    55   27   56 1
    56   27   57 1
    57   28   29 2
    58   28   30 1
    59   31   32 2
    60   31   33 1
@<TRIPOS>MOLECULE
CHEMBL66389__4
   58    60     0     0     0
SMALL
USER_CHARGES

@<TRIPOS>ATOM
      1 C1         -0.0187    1.5258    0.0104 C.3       1 <0>        -0.1481
      2 C2          0.0021   -0.0041    0.0020 C.3       1 <0>         0.0060
      3 C3         -1.4056   -0.5215    0.1143 C.2       1 <0>        -0.3834
      4 C4         -1.7170   -1.6275    0.8844 C.2       1 <0>         0.4818
      5 N1         -2.9847   -2.0572    0.9492 N.2       1 <0>        -0.6238
      6 C5         -3.9469   -1.4418    0.2960 C.2       1 <0>         0.6583
      7 N2         -3.6931   -0.3467   -0.4712 N.am      1 <0>        -0.6622
      8 C6         -2.4351    0.1286   -0.5772 C.2       1 <0>         0.5551
      9 O1         -2.1980    1.1089   -1.2654 O.2       1 <0>        -0.5420
     10 N3         -5.2293   -1.9128    0.3896 N.pl3     1 <0>        -0.8242
     11 N4         -0.7380   -2.2955    1.5954 N.pl3     1 <0>        -0.7074
     12 C7          0.6738   -2.0249    1.2932 C.3       1 <0>         0.1247
     13 C8          0.8479   -0.5052    1.1736 C.3       1 <0>        -0.0990
     14 C9          2.3206   -0.1759    0.9209 C.3       1 <0>        -0.1097
     15 C10         3.1480   -0.5654    2.1475 C.3       1 <0>        -0.0775
     16 C11         4.5985   -0.2411    1.8986 C.ar      1 <0>        -0.0773
     17 C12         5.4261   -1.1867    1.3197 C.ar      1 <0>        -0.1288
     18 C13         6.7549   -0.8962    1.0891 C.ar      1 <0>        -0.0646
     19 C14         7.2638    0.3549    1.4413 C.ar      1 <0>        -0.1096
     20 C15         6.4235    1.3042    2.0250 C.ar      1 <0>        -0.0826
     21 C16         5.0953    1.0029    2.2449 C.ar      1 <0>        -0.1235
     22 C17         8.6870    0.6729    1.1976 C.2       1 <0>         0.5478
     23 O2          9.4166   -0.1560    0.6895 O.2       1 <0>        -0.5561
     24 N5          9.1753    1.8818    1.5388 N.am      1 <0>        -0.6746
     25 C18        10.5855    2.1970    1.2973 C.3       1 <0>         0.0725
     26 C19        11.0393    3.2848    2.2727 C.3       1 <0>        -0.0812
     27 C20        10.9848    2.7428    3.7025 C.3       1 <0>        -0.1775
     28 C21        11.4317    3.8144    4.6633 C.2       1 <0>         0.4911
     29 O3         11.7632    4.9100    4.2434 O.co2     1 <0>        -0.6973
     30 O4         11.4619    3.5857    5.8605 O.co2     1 <0>        -0.7201
     31 C22        10.7554    2.6880   -0.1173 C.2       1 <0>         0.4970
     32 O5          9.7751    2.9413   -0.7965 O.co2     1 <0>        -0.6975
     33 O6         11.8731    2.8320   -0.5825 O.co2     1 <0>        -0.7009
     34 H1          1.0010    1.9025    0.0900 H         1 <0>         0.0518
     35 H2         -0.4688    1.8881   -0.9138 H         1 <0>         0.0824
     36 H3         -0.6030    1.8765    0.8611 H         1 <0>         0.0419
     37 H4          0.4386   -0.3537   -0.9336 H         1 <0>         0.0661
     38 H5         -5.4210   -2.6928    0.9334 H         1 <0>         0.4267
     39 H6         -5.9460   -1.4665   -0.0879 H         1 <0>         0.4139
     40 H7         -0.9798   -2.9339    2.2846 H         1 <0>         0.4066
     41 H8          1.3028   -2.4060    2.0977 H         1 <0>         0.0917
     42 H9          0.9476   -2.5025    0.3524 H         1 <0>         0.0689
     43 H10         0.5169   -0.0258    2.0948 H         1 <0>         0.0788
     44 H11         2.6736   -0.7326    0.0528 H         1 <0>         0.0692
     45 H12         2.4272    0.8928    0.7351 H         1 <0>         0.0775
     46 H13         2.7950   -0.0088    3.0156 H         1 <0>         0.0716
     47 H14         3.0413   -1.6342    2.3332 H         1 <0>         0.0695
     48 H15         5.0312   -2.1545    1.0480 H         1 <0>         0.1209
     49 H16         7.4000   -1.6353    0.6375 H         1 <0>         0.1326
     50 H17         6.8111    2.2741    2.2998 H         1 <0>         0.1285
     51 H18         4.4429    1.7381    2.6924 H         1 <0>         0.1232
     52 H19         8.5931    2.5433    1.9442 H         1 <0>         0.3900
     53 H20        11.1886    1.3012    1.4458 H         1 <0>         0.0782
     54 H21        12.0608    3.5823    2.0356 H         1 <0>         0.0771
     55 H22        10.3800    4.1485    2.1862 H         1 <0>         0.0565
     56 H23         9.9633    2.4453    3.9395 H         1 <0>         0.0505
     57 H24        11.6441    1.8792    3.7890 H         1 <0>         0.0526
     58 H25        -4.4181    0.0931   -0.9422 H         1 <0>         0.4077
@<TRIPOS>BOND
     1    1    2 1
     2    1   34 1
     3    1   35 1
     4    1   36 1
     5    2   13 1
     6    2    3 1
     7    2   37 1
     8    3    8 1
     9    3    4 2
    10    4    5 1
    11    4   11 1
    12    5    6 2
    13    6    7 1
    14    6   10 1
    15    7    8 am
    16    7   58 1
    17    8    9 2
    18   10   38 1
    19   10   39 1
    20   11   12 1
    21   11   40 1
    22   12   13 1
    23   12   41 1
    24   12   42 1
    25   13   14 1
    26   13   43 1
    27   14   15 1
    28   14   44 1
    29   14   45 1
    30   15   16 1
    31   15   46 1
    32   15   47 1
    33   16   21 ar
    34   16   17 ar
    35   17   18 ar
    36   17   48 1
    37   18   19 ar
    38   18   49 1
    39   19   20 ar
    40   19   22 1
    41   20   21 ar
    42   20   50 1
    43   21   51 1
    44   22   23 2
    45   22   24 am
    46   24   25 1
    47   24   52 1
    48   25   26 1
    49   25   31 1
    50   25   53 1
    51   26   27 1
    52   26   54 1
    53   26   55 1
    54   27   28 1
    55   27   56 1
    56   27   57 1
    57   28   29 2
    58   28   30 1
    59   31   32 2
    60   31   33 1
@<TRIPOS>MOLECULE
CHEMBL66389__5
   58    60     0     0     0
SMALL
USER_CHARGES

@<TRIPOS>ATOM
      1 C1         -0.0187    1.5258    0.0104 C.3       1 <0>        -0.1477
      2 C2          0.0021   -0.0041    0.0020 C.3       1 <0>        -0.0005
      3 C3         -1.4060   -0.5214    0.1133 C.2       1 <0>        -0.3372
      4 C4         -1.7156   -1.6094    0.8685 C.2       1 <0>         0.4425
      5 N1         -3.0172   -2.0390    0.9230 N.pl3     1 <0>        -0.6549
      6 C5         -3.9859   -1.3779    0.2325 C.2       1 <0>         0.6573
      7 N2         -3.6997   -0.3212   -0.4972 N.2       1 <0>        -0.6354
      8 C6         -2.4413    0.1367   -0.5851 C.2       1 <0>         0.5450
      9 O1         -2.1925    1.1201   -1.2676 O.2       1 <0>        -0.5198
     10 N3         -5.2806   -1.8198    0.2986 N.pl3     1 <0>        -0.8259
     11 N4         -0.7518   -2.2835    1.5829 N.pl3     1 <0>        -0.7321
     12 C7          0.6654   -2.0240    1.2963 C.3       1 <0>         0.1298
     13 C8          0.8480   -0.5050    1.1737 C.3       1 <0>        -0.1020
     14 C9          2.3218   -0.1841    0.9171 C.3       1 <0>        -0.1103
     15 C10         3.1495   -0.5733    2.1436 C.3       1 <0>        -0.0767
     16 C11         4.6011   -0.2572    1.8909 C.ar      1 <0>        -0.0786
     17 C12         5.4230   -1.2091    1.3139 C.ar      1 <0>        -0.1289
     18 C13         6.7528   -0.9261    1.0799 C.ar      1 <0>        -0.0647
     19 C14         7.2686    0.3236    1.4266 C.ar      1 <0>        -0.1087
     20 C15         6.4342    1.2793    2.0083 C.ar      1 <0>        -0.0823
     21 C16         5.1049    0.9855    2.2317 C.ar      1 <0>        -0.1230
     22 C17         8.6929    0.6335    1.1791 C.2       1 <0>         0.5475
     23 O2          9.4174   -0.2009    0.6727 O.2       1 <0>        -0.5560
     24 N5          9.1880    1.8412    1.5150 N.am      1 <0>        -0.6743
     25 C18        10.5993    2.1483    1.2698 C.3       1 <0>         0.0725
     26 C19        11.0603    3.2375    2.2404 C.3       1 <0>        -0.0813
     27 C20        11.0057    2.7010    3.6722 C.3       1 <0>        -0.1774
     28 C21        11.4598    3.7737    4.6283 C.2       1 <0>         0.4911
     29 O3         11.7960    4.8661    4.2038 O.co2     1 <0>        -0.6970
     30 O4         11.4910    3.5492    5.8263 O.co2     1 <0>        -0.7202
     31 C22        10.7690    2.6334   -0.1469 C.2       1 <0>         0.4969
     32 O5          9.7888    2.8892   -0.8253 O.co2     1 <0>        -0.6972
     33 O6         11.8866    2.7700   -0.6147 O.co2     1 <0>        -0.7008
     34 H1          1.0006    1.9025    0.0951 H         1 <0>         0.0524
     35 H2         -0.4642    1.8882   -0.9160 H         1 <0>         0.0877
     36 H3         -0.6073    1.8765    0.8582 H         1 <0>         0.0429
     37 H4          0.4389   -0.3536   -0.9335 H         1 <0>         0.0722
     38 H5         -5.5007   -2.5979    0.8344 H         1 <0>         0.4085
     39 H6         -5.9774   -1.3548   -0.1903 H         1 <0>         0.4302
     40 H7         -1.0052   -2.9222    2.2676 H         1 <0>         0.4014
     41 H8          1.2825   -2.4057    2.1097 H         1 <0>         0.0943
     42 H9          0.9472   -2.5063    0.3603 H         1 <0>         0.0717
     43 H10         0.5207   -0.0217    2.0942 H         1 <0>         0.0800
     44 H11         2.6704   -0.7457    0.0504 H         1 <0>         0.0700
     45 H12         2.4335    0.8834    0.7273 H         1 <0>         0.0795
     46 H13         2.8009   -0.0117    3.0103 H         1 <0>         0.0716
     47 H14         3.0378   -1.6409    2.3334 H         1 <0>         0.0682
     48 H15         5.0226   -2.1758    1.0465 H         1 <0>         0.1204
     49 H16         7.3933   -1.6701    0.6298 H         1 <0>         0.1327
     50 H17         6.8272    2.2482    2.2789 H         1 <0>         0.1289
     51 H18         4.4570    1.7256    2.6778 H         1 <0>         0.1234
     52 H19         8.6098    2.5071    1.9191 H         1 <0>         0.3901
     53 H20        11.1981    1.2501    1.4205 H         1 <0>         0.0782
     54 H21        12.0829    3.5289    2.0004 H         1 <0>         0.0773
     55 H22        10.4052    4.1041    2.1519 H         1 <0>         0.0567
     56 H23         9.9832    2.4095    3.9122 H         1 <0>         0.0503
     57 H24        11.6608    1.8343    3.7607 H         1 <0>         0.0525
     58 H25        -3.2479   -2.8165    1.4552 H         1 <0>         0.4091
@<TRIPOS>BOND
     1    1    2 1
     2    1   34 1
     3    1   35 1
     4    1   36 1
     5    2   13 1
     6    2    3 1
     7    2   37 1
     8    3    8 1
     9    3    4 2
    10    4    5 1
    11    4   11 1
    12    5    6 1
    13    5   58 1
    14    6    7 2
    15    6   10 1
    16    7    8 1
    17    8    9 2
    18   10   38 1
    19   10   39 1
    20   11   12 1
    21   11   40 1
    22   12   13 1
    23   12   41 1
    24   12   42 1
    25   13   14 1
    26   13   43 1
    27   14   15 1
    28   14   44 1
    29   14   45 1
    30   15   16 1
    31   15   46 1
    32   15   47 1
    33   16   21 ar
    34   16   17 ar
    35   17   18 ar
    36   17   48 1
    37   18   19 ar
    38   18   49 1
    39   19   20 ar
    40   19   22 1
    41   20   21 ar
    42   20   50 1
    43   21   51 1
    44   22   23 2
    45   22   24 am
    46   24   25 1
    47   24   52 1
    48   25   26 1
    49   25   31 1
    50   25   53 1
    51   26   27 1
    52   26   54 1
    53   26   55 1
    54   27   28 1
    55   27   56 1
    56   27   57 1
    57   28   29 2
    58   28   30 1
    59   31   32 2
    60   31   33 1
@<TRIPOS>MOLECULE
CHEMBL66389__6
   58    60     0     0     0
SMALL
USER_CHARGES

@<TRIPOS>ATOM
      1 C1         -0.0187    1.5258    0.0104 C.3       1 <0>        -0.1483
      2 C2          0.0021   -0.0041    0.0020 C.3       1 <0>         0.0060
      3 C3         -1.4056   -0.5215    0.1143 C.2       1 <0>        -0.3833
      4 C4         -1.7170   -1.6275    0.8844 C.2       1 <0>         0.4817
      5 N1         -2.9847   -2.0572    0.9492 N.2       1 <0>        -0.6238
      6 C5         -3.9469   -1.4418    0.2960 C.2       1 <0>         0.6583
      7 N2         -3.6931   -0.3467   -0.4712 N.am      1 <0>        -0.6621
      8 C6         -2.4351    0.1286   -0.5772 C.2       1 <0>         0.5550
      9 O1         -2.1980    1.1089   -1.2654 O.2       1 <0>        -0.5415
     10 N3         -5.2293   -1.9128    0.3896 N.pl3     1 <0>        -0.8243
     11 N4         -0.7380   -2.2955    1.5954 N.pl3     1 <0>        -0.7075
     12 C7          0.6738   -2.0249    1.2932 C.3       1 <0>         0.1247
     13 C8          0.8479   -0.5052    1.1736 C.3       1 <0>        -0.0990
     14 C9          2.3206   -0.1759    0.9209 C.3       1 <0>        -0.1095
     15 C10         3.1480   -0.5654    2.1475 C.3       1 <0>        -0.0778
     16 C11         4.5985   -0.2411    1.8986 C.ar      1 <0>        -0.0765
     17 C12         5.4261   -1.1867    1.3197 C.ar      1 <0>        -0.1289
     18 C13         6.7549   -0.8962    1.0891 C.ar      1 <0>        -0.0643
     19 C14         7.2638    0.3549    1.4413 C.ar      1 <0>        -0.1114
     20 C15         6.4235    1.3042    2.0250 C.ar      1 <0>        -0.0822
     21 C16         5.0953    1.0029    2.2449 C.ar      1 <0>        -0.1234
     22 C17         8.6870    0.6729    1.1976 C.2       1 <0>         0.5431
     23 O2          9.4166   -0.1560    0.6895 O.2       1 <0>        -0.5538
     24 N5          9.1753    1.8818    1.5388 N.am      1 <0>        -0.6752
     25 C18        10.5855    2.1970    1.2973 C.3       1 <0>         0.0734
     26 C19        10.7544    3.7120    1.1668 C.3       1 <0>        -0.0824
     27 C20        10.0112    4.2028   -0.0772 C.3       1 <0>        -0.1773
     28 C21        10.1776    5.6951   -0.2056 C.2       1 <0>         0.4912
     29 O3         10.8302    6.3091    0.6212 O.co2     1 <0>        -0.6978
     30 O4          9.6597    6.2883   -1.1364 O.co2     1 <0>        -0.7192
     31 C22        11.4167    1.6962    2.4503 C.2       1 <0>         0.4985
     32 O5         12.5697    1.3464    2.2639 O.co2     1 <0>        -0.7011
     33 O6         10.9362    1.6409    3.5694 O.co2     1 <0>        -0.6988
     34 H1          1.0010    1.9025    0.0900 H         1 <0>         0.0519
     35 H2         -0.4688    1.8881   -0.9138 H         1 <0>         0.0825
     36 H3         -0.6030    1.8765    0.8611 H         1 <0>         0.0419
     37 H4          0.4386   -0.3537   -0.9336 H         1 <0>         0.0660
     38 H5         -5.4210   -2.6928    0.9334 H         1 <0>         0.4267
     39 H6         -5.9460   -1.4665   -0.0879 H         1 <0>         0.4139
     40 H7         -0.9798   -2.9339    2.2846 H         1 <0>         0.4066
     41 H8          1.3028   -2.4060    2.0977 H         1 <0>         0.0916
     42 H9          0.9476   -2.5025    0.3524 H         1 <0>         0.0688
     43 H10         0.5169   -0.0258    2.0948 H         1 <0>         0.0788
     44 H11         2.6736   -0.7326    0.0528 H         1 <0>         0.0690
     45 H12         2.4272    0.8928    0.7351 H         1 <0>         0.0776
     46 H13         2.7950   -0.0088    3.0156 H         1 <0>         0.0717
     47 H14         3.0413   -1.6342    2.3332 H         1 <0>         0.0697
     48 H15         5.0312   -2.1545    1.0480 H         1 <0>         0.1212
     49 H16         7.4000   -1.6353    0.6375 H         1 <0>         0.1328
     50 H17         6.8111    2.2741    2.2998 H         1 <0>         0.1291
     51 H18         4.4429    1.7381    2.6924 H         1 <0>         0.1236
     52 H19         8.5931    2.5433    1.9442 H         1 <0>         0.3915
     53 H20        10.9132    1.7142    0.3765 H         1 <0>         0.0779
     54 H21        10.3451    4.2007    2.0510 H         1 <0>         0.0602
     55 H22        11.8136    3.9530    1.0760 H         1 <0>         0.0727
     56 H23        10.4205    3.7141   -0.9614 H         1 <0>         0.0527
     57 H24         8.9521    3.9618    0.0136 H         1 <0>         0.0512
     58 H25        -4.4181    0.0931   -0.9422 H         1 <0>         0.4077
@<TRIPOS>BOND
     1    1    2 1
     2    1   34 1
     3    1   35 1
     4    1   36 1
     5    2   13 1
     6    2    3 1
     7    2   37 1
     8    3    8 1
     9    3    4 2
    10    4    5 1
    11    4   11 1
    12    5    6 2
    13    6    7 1
    14    6   10 1
    15    7    8 am
    16    7   58 1
    17    8    9 2
    18   10   38 1
    19   10   39 1
    20   11   12 1
    21   11   40 1
    22   12   13 1
    23   12   41 1
    24   12   42 1
    25   13   14 1
    26   13   43 1
    27   14   15 1
    28   14   44 1
    29   14   45 1
    30   15   16 1
    31   15   46 1
    32   15   47 1
    33   16   21 ar
    34   16   17 ar
    35   17   18 ar
    36   17   48 1
    37   18   19 ar
    38   18   49 1
    39   19   20 ar
    40   19   22 1
    41   20   21 ar
    42   20   50 1
    43   21   51 1
    44   22   23 2
    45   22   24 am
    46   24   25 1
    47   24   52 1
    48   25   26 1
    49   25   31 1
    50   25   53 1
    51   26   27 1
    52   26   54 1
    53   26   55 1
    54   27   28 1
    55   27   56 1
    56   27   57 1
    57   28   29 2
    58   28   30 1
    59   31   32 2
    60   31   33 1
@<TRIPOS>MOLECULE
CHEMBL66389__7
   58    60     0     0     0
SMALL
USER_CHARGES

@<TRIPOS>ATOM
      1 C1         -0.0187    1.5258    0.0104 C.3       1 <0>        -0.1479
      2 C2          0.0021   -0.0041    0.0020 C.3       1 <0>        -0.0005
      3 C3         -1.4060   -0.5214    0.1133 C.2       1 <0>        -0.3370
      4 C4         -1.7156   -1.6094    0.8685 C.2       1 <0>         0.4424
      5 N1         -3.0172   -2.0390    0.9230 N.pl3     1 <0>        -0.6549
      6 C5         -3.9859   -1.3779    0.2325 C.2       1 <0>         0.6572
      7 N2         -3.6997   -0.3212   -0.4972 N.2       1 <0>        -0.6352
      8 C6         -2.4413    0.1367   -0.5851 C.2       1 <0>         0.5448
      9 O1         -2.1925    1.1201   -1.2676 O.2       1 <0>        -0.5193
     10 N3         -5.2806   -1.8198    0.2986 N.pl3     1 <0>        -0.8260
     11 N4         -0.7518   -2.2835    1.5829 N.pl3     1 <0>        -0.7321
     12 C7          0.6654   -2.0240    1.2963 C.3       1 <0>         0.1298
     13 C8          0.8480   -0.5050    1.1737 C.3       1 <0>        -0.1020
     14 C9          2.3218   -0.1841    0.9171 C.3       1 <0>        -0.1101
     15 C10         3.1495   -0.5733    2.1436 C.3       1 <0>        -0.0770
     16 C11         4.6011   -0.2572    1.8909 C.ar      1 <0>        -0.0778
     17 C12         5.4230   -1.2091    1.3139 C.ar      1 <0>        -0.1290
     18 C13         6.7528   -0.9261    1.0799 C.ar      1 <0>        -0.0644
     19 C14         7.2686    0.3236    1.4266 C.ar      1 <0>        -0.1105
     20 C15         6.4342    1.2793    2.0083 C.ar      1 <0>        -0.0819
     21 C16         5.1049    0.9855    2.2317 C.ar      1 <0>        -0.1229
     22 C17         8.6929    0.6335    1.1791 C.2       1 <0>         0.5428
     23 O2          9.4174   -0.2009    0.6727 O.2       1 <0>        -0.5537
     24 N5          9.1880    1.8412    1.5150 N.am      1 <0>        -0.6749
     25 C18        10.5993    2.1483    1.2698 C.3       1 <0>         0.0734
     26 C19        10.7756    3.6620    1.1335 C.3       1 <0>        -0.0824
     27 C20        10.0326    4.1521   -0.1110 C.3       1 <0>        -0.1774
     28 C21        10.2063    5.6430   -0.2452 C.2       1 <0>         0.4912
     29 O3         10.8634    6.2567    0.5782 O.co2     1 <0>        -0.6978
     30 O4          9.6896    6.2355   -1.1771 O.co2     1 <0>        -0.7189
     31 C22        11.4301    1.6476    2.4231 C.2       1 <0>         0.4986
     32 O5         12.5809    1.2913    2.2359 O.co2     1 <0>        -0.7009
     33 O6         10.9513    1.5989    3.5433 O.co2     1 <0>        -0.6990
     34 H1          1.0006    1.9025    0.0951 H         1 <0>         0.0525
     35 H2         -0.4642    1.8882   -0.9160 H         1 <0>         0.0879
     36 H3         -0.6073    1.8765    0.8582 H         1 <0>         0.0429
     37 H4          0.4389   -0.3536   -0.9335 H         1 <0>         0.0721
     38 H5         -5.5007   -2.5979    0.8344 H         1 <0>         0.4084
     39 H6         -5.9774   -1.3548   -0.1903 H         1 <0>         0.4302
     40 H7         -1.0052   -2.9222    2.2676 H         1 <0>         0.4014
     41 H8          1.2825   -2.4057    2.1097 H         1 <0>         0.0942
     42 H9          0.9472   -2.5063    0.3603 H         1 <0>         0.0716
     43 H10         0.5207   -0.0217    2.0942 H         1 <0>         0.0801
     44 H11         2.6704   -0.7457    0.0504 H         1 <0>         0.0698
     45 H12         2.4335    0.8834    0.7273 H         1 <0>         0.0796
     46 H13         2.8009   -0.0117    3.0103 H         1 <0>         0.0717
     47 H14         3.0378   -1.6409    2.3334 H         1 <0>         0.0684
     48 H15         5.0226   -2.1758    1.0465 H         1 <0>         0.1207
     49 H16         7.3933   -1.6701    0.6298 H         1 <0>         0.1330
     50 H17         6.8272    2.2482    2.2789 H         1 <0>         0.1295
     51 H18         4.4570    1.7256    2.6778 H         1 <0>         0.1238
     52 H19         8.6098    2.5071    1.9191 H         1 <0>         0.3915
     53 H20        10.9228    1.6606    0.3502 H         1 <0>         0.0780
     54 H21        10.3704    4.1560    2.0166 H         1 <0>         0.0602
     55 H22        11.8358    3.8973    1.0399 H         1 <0>         0.0728
     56 H23        10.4378    3.6581   -0.9941 H         1 <0>         0.0528
     57 H24         8.9724    3.9167   -0.0173 H         1 <0>         0.0512
     58 H25        -3.2479   -2.8165    1.4552 H         1 <0>         0.4090
@<TRIPOS>BOND
     1    1    2 1
     2    1   34 1
     3    1   35 1
     4    1   36 1
     5    2   13 1
     6    2    3 1
     7    2   37 1
     8    3    8 1
     9    3    4 2
    10    4    5 1
    11    4   11 1
    12    5    6 1
    13    5   58 1
    14    6    7 2
    15    6   10 1
    16    7    8 1
    17    8    9 2
    18   10   38 1
    19   10   39 1
    20   11   12 1
    21   11   40 1
    22   12   13 1
    23   12   41 1
    24   12   42 1
    25   13   14 1
    26   13   43 1
    27   14   15 1
    28   14   44 1
    29   14   45 1
    30   15   16 1
    31   15   46 1
    32   15   47 1
    33   16   21 ar
    34   16   17 ar
    35   17   18 ar
    36   17   48 1
    37   18   19 ar
    38   18   49 1
    39   19   20 ar
    40   19   22 1
    41   20   21 ar
    42   20   50 1
    43   21   51 1
    44   22   23 2
    45   22   24 am
    46   24   25 1
    47   24   52 1
    48   25   26 1
    49   25   31 1
    50   25   53 1
    51   26   27 1
    52   26   54 1
    53   26   55 1
    54   27   28 1
    55   27   56 1
    56   27   57 1
    57   28   29 2
    58   28   30 1
    59   31   32 2
    60   31   33 1
@<TRIPOS>MOLECULE
CHEMBL66389__8
   58    60     0     0     0
SMALL
USER_CHARGES

@<TRIPOS>ATOM
      1 C1         -0.0187    1.5258    0.0104 C.3       1 <0>        -0.1473
      2 C2          0.0021   -0.0041    0.0020 C.3       1 <0>         0.0056
      3 C3          0.5760   -0.4869   -1.3016 C.2       1 <0>        -0.3842
      4 C4          1.4316   -1.5719   -1.3647 C.2       1 <0>         0.4824
      5 N1          1.9140   -1.9705   -2.5498 N.2       1 <0>        -0.6233
      6 C5          1.5934   -1.3438   -3.6614 C.2       1 <0>         0.6582
      7 N2          0.7602   -0.2677   -3.6519 N.am      1 <0>        -0.6622
      8 C6          0.2402    0.1754   -2.4888 C.2       1 <0>         0.5554
      9 O1         -0.5108    1.1379   -2.4715 O.2       1 <0>        -0.5431
     10 N3          2.1087   -1.7829   -4.8517 N.pl3     1 <0>        -0.8242
     11 N4          1.8026   -2.2505   -0.2193 N.pl3     1 <0>        -0.7068
     12 C7          1.0528   -2.0184    1.0224 C.3       1 <0>         0.1237
     13 C8          0.8479   -0.5052    1.1736 C.3       1 <0>        -0.0983
     14 C9          0.1245   -0.2143    2.4900 C.3       1 <0>        -0.1098
     15 C10         1.0258   -0.6026    3.6638 C.3       1 <0>        -0.0775
     16 C11         0.3133   -0.3161    4.9604 C.ar      1 <0>        -0.0773
     17 C12         0.4466    0.9236    5.5603 C.ar      1 <0>        -0.1282
     18 C13        -0.2029    1.1924    6.7473 C.ar      1 <0>        -0.0642
     19 C14        -0.9960    0.2104    7.3431 C.ar      1 <0>        -0.1096
     20 C15        -1.1263   -1.0380    6.7327 C.ar      1 <0>        -0.0830
     21 C16        -0.4759   -1.2919    5.5429 C.ar      1 <0>        -0.1241
     22 C17        -1.6947    0.4913    8.6154 C.2       1 <0>         0.5477
     23 O2         -1.5791    1.5793    9.1449 O.2       1 <0>        -0.5557
     24 N5         -2.4597   -0.4590    9.1882 N.am      1 <0>        -0.6747
     25 C18        -3.1520   -0.1806   10.4489 C.3       1 <0>         0.0725
     26 C19        -3.4093   -1.4940   11.1903 C.3       1 <0>        -0.0811
     27 C20        -2.0737   -2.1229   11.5922 C.3       1 <0>        -0.1775
     28 C21        -2.3271   -3.4166   12.3224 C.2       1 <0>         0.4911
     29 O3         -3.4700   -3.8001   12.5045 O.co2     1 <0>        -0.6973
     30 O4         -1.3892   -4.0798   12.7311 O.co2     1 <0>        -0.7201
     31 C22        -4.4657    0.4994   10.1611 C.2       1 <0>         0.4970
     32 O5         -4.8790    0.5674    9.0161 O.co2     1 <0>        -0.6975
     33 O6         -5.1152    0.9816   11.0733 O.co2     1 <0>        -0.7009
     34 H1          0.9670    1.9040   -0.2606 H         1 <0>         0.0412
     35 H2         -0.7554    1.8831   -0.7090 H         1 <0>         0.0823
     36 H3         -0.2824    1.8801    1.0069 H         1 <0>         0.0510
     37 H4         -1.0161   -0.3792    0.1058 H         1 <0>         0.0667
     38 H5          2.7037   -2.5487   -4.8696 H         1 <0>         0.4268
     39 H6          1.8788   -1.3280   -5.6770 H         1 <0>         0.4138
     40 H7          2.5475   -2.8716   -0.2351 H         1 <0>         0.4069
     41 H8          0.0857   -2.5183    0.9681 H         1 <0>         0.0701
     42 H9          1.6189   -2.4004    1.8719 H         1 <0>         0.0923
     43 H10         1.8153   -0.0031    1.1670 H         1 <0>         0.0780
     44 H11        -0.1104    0.8484    2.5483 H         1 <0>         0.0764
     45 H12        -0.7980   -0.7933    2.5333 H         1 <0>         0.0703
     46 H13         1.2608   -1.6653    3.6055 H         1 <0>         0.0706
     47 H14         1.9483   -0.0236    3.6205 H         1 <0>         0.0705
     48 H15         1.0609    1.6824    5.0984 H         1 <0>         0.1212
     49 H16        -0.0978    2.1603    7.2147 H         1 <0>         0.1327
     50 H17        -1.7384   -1.8021    7.1886 H         1 <0>         0.1284
     51 H18        -0.5793   -2.2560    5.0673 H         1 <0>         0.1229
     52 H19        -2.5520   -1.3272    8.7656 H         1 <0>         0.3899
     53 H20        -2.5336    0.4703   11.0670 H         1 <0>         0.0782
     54 H21        -4.0016   -1.2969   12.0838 H         1 <0>         0.0771
     55 H22        -3.9518   -2.1789   10.5385 H         1 <0>         0.0564
     56 H23        -1.4814   -2.3200   10.6986 H         1 <0>         0.0505
     57 H24        -1.5312   -1.4381   12.2439 H         1 <0>         0.0526
     58 H25         0.5397    0.1812   -4.4830 H         1 <0>         0.4075
@<TRIPOS>BOND
     1    1    2 1
     2    1   34 1
     3    1   35 1
     4    1   36 1
     5    2   13 1
     6    2    3 1
     7    2   37 1
     8    3    8 1
     9    3    4 2
    10    4    5 1
    11    4   11 1
    12    5    6 2
    13    6    7 1
    14    6   10 1
    15    7    8 am
    16    7   58 1
    17    8    9 2
    18   10   38 1
    19   10   39 1
    20   11   12 1
    21   11   40 1
    22   12   13 1
    23   12   41 1
    24   12   42 1
    25   13   14 1
    26   13   43 1
    27   14   15 1
    28   14   44 1
    29   14   45 1
    30   15   16 1
    31   15   46 1
    32   15   47 1
    33   16   21 ar
    34   16   17 ar
    35   17   18 ar
    36   17   48 1
    37   18   19 ar
    38   18   49 1
    39   19   20 ar
    40   19   22 1
    41   20   21 ar
    42   20   50 1
    43   21   51 1
    44   22   23 2
    45   22   24 am
    46   24   25 1
    47   24   52 1
    48   25   26 1
    49   25   31 1
    50   25   53 1
    51   26   27 1
    52   26   54 1
    53   26   55 1
    54   27   28 1
    55   27   56 1
    56   27   57 1
    57   28   29 2
    58   28   30 1
    59   31   32 2
    60   31   33 1
@<TRIPOS>MOLECULE
CHEMBL66389__9
   58    60     0     0     0
SMALL
USER_CHARGES

@<TRIPOS>ATOM
      1 C1         -0.0187    1.5258    0.0104 C.3       1 <0>        -0.1468
      2 C2          0.0021   -0.0041    0.0020 C.3       1 <0>        -0.0008
      3 C3          0.5752   -0.4868   -1.3023 C.2       1 <0>        -0.3383
      4 C4          1.4149   -1.5547   -1.3683 C.2       1 <0>         0.4434
      5 N1          1.8979   -1.9530   -2.5889 N.pl3     1 <0>        -0.6547
      6 C5          1.5430   -1.2812   -3.7180 C.2       1 <0>         0.6575
      7 N2          0.7357   -0.2436   -3.6664 N.2       1 <0>        -0.6358
      8 C6          0.2346    0.1835   -2.4971 C.2       1 <0>         0.5455
      9 O1         -0.5136    1.1499   -2.4666 O.2       1 <0>        -0.5210
     10 N3          2.0350   -1.6919   -4.9285 N.pl3     1 <0>        -0.8259
     11 N4          1.7942   -2.2390   -0.2363 N.pl3     1 <0>        -0.7316
     12 C7          1.0583   -2.0171    1.0156 C.3       1 <0>         0.1289
     13 C8          0.8480   -0.5050    1.1737 C.3       1 <0>        -0.1013
     14 C9          0.1207   -0.2226    2.4898 C.3       1 <0>        -0.1104
     15 C10         1.0218   -0.6106    3.6638 C.3       1 <0>        -0.0767
     16 C11         0.3055   -0.3324    4.9602 C.ar      1 <0>        -0.0786
     17 C12         0.4315    0.9057    5.5648 C.ar      1 <0>        -0.1277
     18 C13        -0.2216    1.1669    6.7516 C.ar      1 <0>        -0.0639
     19 C14        -1.0108    0.1788    7.3423 C.ar      1 <0>        -0.1087
     20 C15        -1.1336   -1.0681    6.7272 C.ar      1 <0>        -0.0831
     21 C16        -0.4798   -1.3143    5.5376 C.ar      1 <0>        -0.1242
     22 C17        -1.7132    0.4515    8.6144 C.2       1 <0>         0.5474
     23 O2         -1.6040    1.5382    9.1480 O.2       1 <0>        -0.5552
     24 N5         -2.4745   -0.5047    9.1823 N.am      1 <0>        -0.6745
     25 C18        -3.1704   -0.2344   10.4428 C.3       1 <0>         0.0725
     26 C19        -3.4224   -1.5518   11.1789 C.3       1 <0>        -0.0811
     27 C20        -2.0844   -2.1754   11.5809 C.3       1 <0>        -0.1774
     28 C21        -2.3326   -3.4730   12.3060 C.2       1 <0>         0.4911
     29 O3         -3.4739   -3.8629   12.4845 O.co2     1 <0>        -0.6971
     30 O4         -1.3920   -4.1329   12.7140 O.co2     1 <0>        -0.7203
     31 C22        -4.4870    0.4400   10.1550 C.2       1 <0>         0.4969
     32 O5         -4.8986    0.5101    9.0095 O.co2     1 <0>        -0.6974
     33 O6         -5.1406    0.9156   11.0678 O.co2     1 <0>        -0.7007
     34 H1          0.9656    1.9040   -0.2658 H         1 <0>         0.0422
     35 H2         -0.7592    1.8830   -0.7052 H         1 <0>         0.0876
     36 H3         -0.2772    1.8801    1.0083 H         1 <0>         0.0515
     37 H4         -1.0161   -0.3790    0.1061 H         1 <0>         0.0728
     38 H5          2.6311   -2.4557   -4.9759 H         1 <0>         0.4086
     39 H6          1.7874   -1.2189   -5.7384 H         1 <0>         0.4301
     40 H7          2.5383   -2.8606   -0.2647 H         1 <0>         0.4017
     41 H8          0.0929   -2.5212    0.9708 H         1 <0>         0.0728
     42 H9          1.6367   -2.3995    1.8567 H         1 <0>         0.0949
     43 H10         1.8135    0.0009    1.1705 H         1 <0>         0.0792
     44 H11        -0.1197    0.8387    2.5516 H         1 <0>         0.0784
     45 H12        -0.7989   -0.8064    2.5293 H         1 <0>         0.0712
     46 H13         1.2623   -1.6719    3.6021 H         1 <0>         0.0693
     47 H14         1.9415   -0.0268    3.6244 H         1 <0>         0.0705
     48 H15         1.0427    1.6693    5.1068 H         1 <0>         0.1215
     49 H16        -0.1222    2.1336    7.2227 H         1 <0>         0.1331
     50 H17        -1.7427   -1.8369    7.1792 H         1 <0>         0.1285
     51 H18        -0.5775   -2.2772    5.0584 H         1 <0>         0.1223
     52 H19        -2.5616   -1.3718    8.7564 H         1 <0>         0.3898
     53 H20        -2.5565    0.4174   11.0643 H         1 <0>         0.0783
     54 H21        -4.0173   -1.3609   12.0720 H         1 <0>         0.0773
     55 H22        -3.9603   -2.2370   10.5236 H         1 <0>         0.0564
     56 H23        -1.4895   -2.3663   10.6878 H         1 <0>         0.0503
     57 H24        -1.5465   -1.4902   12.2362 H         1 <0>         0.0526
     58 H25         2.4944   -2.7156   -2.6474 H         1 <0>         0.4093
@<TRIPOS>BOND
     1    1    2 1
     2    1   34 1
     3    1   35 1
     4    1   36 1
     5    2   13 1
     6    2    3 1
     7    2   37 1
     8    3    8 1
     9    3    4 2
    10    4    5 1
    11    4   11 1
    12    5    6 1
    13    5   58 1
    14    6    7 2
    15    6   10 1
    16    7    8 1
    17    8    9 2
    18   10   38 1
    19   10   39 1
    20   11   12 1
    21   11   40 1
    22   12   13 1
    23   12   41 1
    24   12   42 1
    25   13   14 1
    26   13   43 1
    27   14   15 1
    28   14   44 1
    29   14   45 1
    30   15   16 1
    31   15   46 1
    32   15   47 1
    33   16   21 ar
    34   16   17 ar
    35   17   18 ar
    36   17   48 1
    37   18   19 ar
    38   18   49 1
    39   19   20 ar
    40   19   22 1
    41   20   21 ar
    42   20   50 1
    43   21   51 1
    44   22   23 2
    45   22   24 am
    46   24   25 1
    47   24   52 1
    48   25   26 1
    49   25   31 1
    50   25   53 1
    51   26   27 1
    52   26   54 1
    53   26   55 1
    54   27   28 1
    55   27   56 1
    56   27   57 1
    57   28   29 2
    58   28   30 1
    59   31   32 2
    60   31   33 1
@<TRIPOS>MOLECULE
CHEMBL66389__10
   58    60     0     0     0
SMALL
USER_CHARGES

@<TRIPOS>ATOM
      1 C1         -0.0187    1.5258    0.0104 C.3       1 <0>        -0.1472
      2 C2          0.0021   -0.0041    0.0020 C.3       1 <0>         0.0055
      3 C3          0.5760   -0.4869   -1.3016 C.2       1 <0>        -0.3841
      4 C4          1.4316   -1.5719   -1.3647 C.2       1 <0>         0.4824
      5 N1          1.9140   -1.9705   -2.5498 N.2       1 <0>        -0.6233
      6 C5          1.5934   -1.3438   -3.6614 C.2       1 <0>         0.6583
      7 N2          0.7602   -0.2677   -3.6519 N.am      1 <0>        -0.6622
      8 C6          0.2402    0.1754   -2.4888 C.2       1 <0>         0.5554
      9 O1         -0.5108    1.1379   -2.4715 O.2       1 <0>        -0.5431
     10 N3          2.1087   -1.7829   -4.8517 N.pl3     1 <0>        -0.8242
     11 N4          1.8026   -2.2505   -0.2193 N.pl3     1 <0>        -0.7069
     12 C7          1.0528   -2.0184    1.0224 C.3       1 <0>         0.1237
     13 C8          0.8479   -0.5052    1.1736 C.3       1 <0>        -0.0983
     14 C9          0.1245   -0.2143    2.4900 C.3       1 <0>        -0.1097
     15 C10         1.0258   -0.6026    3.6638 C.3       1 <0>        -0.0778
     16 C11         0.3133   -0.3161    4.9604 C.ar      1 <0>        -0.0765
     17 C12         0.4466    0.9236    5.5603 C.ar      1 <0>        -0.1282
     18 C13        -0.2029    1.1924    6.7473 C.ar      1 <0>        -0.0639
     19 C14        -0.9960    0.2104    7.3431 C.ar      1 <0>        -0.1114
     20 C15        -1.1263   -1.0380    6.7327 C.ar      1 <0>        -0.0826
     21 C16        -0.4759   -1.2919    5.5429 C.ar      1 <0>        -0.1240
     22 C17        -1.6947    0.4913    8.6154 C.2       1 <0>         0.5430
     23 O2         -1.5791    1.5793    9.1449 O.2       1 <0>        -0.5535
     24 N5         -2.4597   -0.4590    9.1882 N.am      1 <0>        -0.6753
     25 C18        -3.1520   -0.1806   10.4489 C.3       1 <0>         0.0734
     26 C19        -4.3773   -1.0890   10.5693 C.3       1 <0>        -0.0823
     27 C20        -5.3820   -0.7386    9.4699 C.3       1 <0>        -0.1773
     28 C21        -6.5888   -1.6333    9.5885 C.2       1 <0>         0.4912
     29 O3         -6.6405   -2.4734   10.4706 O.co2     1 <0>        -0.6978
     30 O4         -7.5134   -1.5171    8.8024 O.co2     1 <0>        -0.7193
     31 C22        -2.2183   -0.4410   11.6028 C.2       1 <0>         0.4985
     32 O5         -2.3345    0.1950   12.6365 O.co2     1 <0>        -0.7011
     33 O6         -1.3467   -1.2876   11.5027 O.co2     1 <0>        -0.6989
     34 H1          0.9670    1.9040   -0.2606 H         1 <0>         0.0412
     35 H2         -0.7554    1.8831   -0.7090 H         1 <0>         0.0824
     36 H3         -0.2824    1.8801    1.0069 H         1 <0>         0.0507
     37 H4         -1.0161   -0.3792    0.1058 H         1 <0>         0.0669
     38 H5          2.7037   -2.5487   -4.8696 H         1 <0>         0.4268
     39 H6          1.8788   -1.3280   -5.6770 H         1 <0>         0.4138
     40 H7          2.5475   -2.8716   -0.2351 H         1 <0>         0.4068
     41 H8          0.0857   -2.5183    0.9681 H         1 <0>         0.0703
     42 H9          1.6189   -2.4004    1.8719 H         1 <0>         0.0921
     43 H10         1.8153   -0.0031    1.1670 H         1 <0>         0.0780
     44 H11        -0.1104    0.8484    2.5483 H         1 <0>         0.0762
     45 H12        -0.7980   -0.7933    2.5333 H         1 <0>         0.0705
     46 H13         1.2608   -1.6653    3.6055 H         1 <0>         0.0707
     47 H14         1.9483   -0.0236    3.6205 H         1 <0>         0.0706
     48 H15         1.0609    1.6824    5.0984 H         1 <0>         0.1215
     49 H16        -0.0978    2.1603    7.2147 H         1 <0>         0.1329
     50 H17        -1.7384   -1.8021    7.1886 H         1 <0>         0.1290
     51 H18        -0.5793   -2.2560    5.0673 H         1 <0>         0.1232
     52 H19        -2.5520   -1.3272    8.7656 H         1 <0>         0.3913
     53 H20        -3.4696    0.8620   10.4666 H         1 <0>         0.0779
     54 H21        -4.0701   -2.1294   10.4627 H         1 <0>         0.0601
     55 H22        -4.8415   -0.9454   11.5450 H         1 <0>         0.0726
     56 H23        -5.6891    0.3018    9.5766 H         1 <0>         0.0528
     57 H24        -4.9177   -0.8821    8.4943 H         1 <0>         0.0512
     58 H25         0.5397    0.1812   -4.4830 H         1 <0>         0.4076
@<TRIPOS>BOND
     1    1    2 1
     2    1   34 1
     3    1   35 1
     4    1   36 1
     5    2   13 1
     6    2    3 1
     7    2   37 1
     8    3    8 1
     9    3    4 2
    10    4    5 1
    11    4   11 1
    12    5    6 2
    13    6    7 1
    14    6   10 1
    15    7    8 am
    16    7   58 1
    17    8    9 2
    18   10   38 1
    19   10   39 1
    20   11   12 1
    21   11   40 1
    22   12   13 1
    23   12   41 1
    24   12   42 1
    25   13   14 1
    26   13   43 1
    27   14   15 1
    28   14   44 1
    29   14   45 1
    30   15   16 1
    31   15   46 1
    32   15   47 1
    33   16   21 ar
    34   16   17 ar
    35   17   18 ar
    36   17   48 1
    37   18   19 ar
    38   18   49 1
    39   19   20 ar
    40   19   22 1
    41   20   21 ar
    42   20   50 1
    43   21   51 1
    44   22   23 2
    45   22   24 am
    46   24   25 1
    47   24   52 1
    48   25   26 1
    49   25   31 1
    50   25   53 1
    51   26   27 1
    52   26   54 1
    53   26   55 1
    54   27   28 1
    55   27   56 1
    56   27   57 1
    57   28   29 2
    58   28   30 1
    59   31   32 2
    60   31   33 1
@<TRIPOS>MOLECULE
CHEMBL66389__11
   58    60     0     0     0
SMALL
USER_CHARGES

@<TRIPOS>ATOM
      1 C1         -0.0187    1.5258    0.0104 C.3       1 <0>        -0.1467
      2 C2          0.0021   -0.0041    0.0020 C.3       1 <0>        -0.0010
      3 C3          0.5752   -0.4868   -1.3023 C.2       1 <0>        -0.3382
      4 C4          1.4149   -1.5547   -1.3683 C.2       1 <0>         0.4434
      5 N1          1.8979   -1.9530   -2.5889 N.pl3     1 <0>        -0.6547
      6 C5          1.5430   -1.2812   -3.7180 C.2       1 <0>         0.6575
      7 N2          0.7357   -0.2436   -3.6664 N.2       1 <0>        -0.6357
      8 C6          0.2346    0.1835   -2.4971 C.2       1 <0>         0.5455
      9 O1         -0.5136    1.1499   -2.4666 O.2       1 <0>        -0.5210
     10 N3          2.0350   -1.6919   -4.9285 N.pl3     1 <0>        -0.8259
     11 N4          1.7942   -2.2390   -0.2363 N.pl3     1 <0>        -0.7316
     12 C7          1.0583   -2.0171    1.0156 C.3       1 <0>         0.1288
     13 C8          0.8480   -0.5050    1.1737 C.3       1 <0>        -0.1013
     14 C9          0.1207   -0.2226    2.4898 C.3       1 <0>        -0.1102
     15 C10         1.0218   -0.6106    3.6638 C.3       1 <0>        -0.0770
     16 C11         0.3055   -0.3324    4.9602 C.ar      1 <0>        -0.0778
     17 C12         0.4315    0.9057    5.5648 C.ar      1 <0>        -0.1278
     18 C13        -0.2216    1.1669    6.7516 C.ar      1 <0>        -0.0636
     19 C14        -1.0108    0.1788    7.3423 C.ar      1 <0>        -0.1105
     20 C15        -1.1336   -1.0681    6.7272 C.ar      1 <0>        -0.0827
     21 C16        -0.4798   -1.3143    5.5376 C.ar      1 <0>        -0.1241
     22 C17        -1.7132    0.4515    8.6144 C.2       1 <0>         0.5427
     23 O2         -1.6040    1.5382    9.1480 O.2       1 <0>        -0.5530
     24 N5         -2.4745   -0.5047    9.1823 N.am      1 <0>        -0.6751
     25 C18        -3.1704   -0.2344   10.4428 C.3       1 <0>         0.0734
     26 C19        -4.3913   -1.1494   10.5576 C.3       1 <0>        -0.0822
     27 C20        -5.3957   -0.8001    9.4576 C.3       1 <0>        -0.1773
     28 C21        -6.5982   -1.7013    9.5708 C.2       1 <0>         0.4911
     29 O3         -6.6473   -2.5449   10.4497 O.co2     1 <0>        -0.6979
     30 O4         -7.5220   -1.5869    8.7834 O.co2     1 <0>        -0.7191
     31 C22        -2.2375   -0.4942   11.5974 C.2       1 <0>         0.4985
     32 O5         -2.3589    0.1374   12.6332 O.co2     1 <0>        -0.7008
     33 O6         -1.3615   -1.3361   11.4958 O.co2     1 <0>        -0.6992
     34 H1          0.9656    1.9040   -0.2658 H         1 <0>         0.0422
     35 H2         -0.7592    1.8830   -0.7052 H         1 <0>         0.0877
     36 H3         -0.2772    1.8801    1.0083 H         1 <0>         0.0512
     37 H4         -1.0161   -0.3790    0.1061 H         1 <0>         0.0730
     38 H5          2.6311   -2.4557   -4.9759 H         1 <0>         0.4086
     39 H6          1.7874   -1.2189   -5.7384 H         1 <0>         0.4302
     40 H7          2.5383   -2.8606   -0.2647 H         1 <0>         0.4016
     41 H8          0.0929   -2.5212    0.9708 H         1 <0>         0.0730
     42 H9          1.6367   -2.3995    1.8567 H         1 <0>         0.0948
     43 H10         1.8135    0.0009    1.1705 H         1 <0>         0.0792
     44 H11        -0.1197    0.8387    2.5516 H         1 <0>         0.0782
     45 H12        -0.7989   -0.8064    2.5293 H         1 <0>         0.0713
     46 H13         1.2623   -1.6719    3.6021 H         1 <0>         0.0694
     47 H14         1.9415   -0.0268    3.6244 H         1 <0>         0.0706
     48 H15         1.0427    1.6693    5.1068 H         1 <0>         0.1218
     49 H16        -0.1222    2.1336    7.2227 H         1 <0>         0.1334
     50 H17        -1.7427   -1.8369    7.1792 H         1 <0>         0.1292
     51 H18        -0.5775   -2.2772    5.0584 H         1 <0>         0.1227
     52 H19        -2.5616   -1.3718    8.7564 H         1 <0>         0.3912
     53 H20        -3.4933    0.8065   10.4636 H         1 <0>         0.0781
     54 H21        -4.0787   -2.1878   10.4477 H         1 <0>         0.0600
     55 H22        -4.8581   -1.0118   11.5329 H         1 <0>         0.0728
     56 H23        -5.7083    0.2383    9.5675 H         1 <0>         0.0529
     57 H24        -4.9290   -0.9377    8.4823 H         1 <0>         0.0511
     58 H25         2.4944   -2.7156   -2.6474 H         1 <0>         0.4093
@<TRIPOS>BOND
     1    1    2 1
     2    1   34 1
     3    1   35 1
     4    1   36 1
     5    2   13 1
     6    2    3 1
     7    2   37 1
     8    3    8 1
     9    3    4 2
    10    4    5 1
    11    4   11 1
    12    5    6 1
    13    5   58 1
    14    6    7 2
    15    6   10 1
    16    7    8 1
    17    8    9 2
    18   10   38 1
    19   10   39 1
    20   11   12 1
    21   11   40 1
    22   12   13 1
    23   12   41 1
    24   12   42 1
    25   13   14 1
    26   13   43 1
    27   14   15 1
    28   14   44 1
    29   14   45 1
    30   15   16 1
    31   15   46 1
    32   15   47 1
    33   16   21 ar
    34   16   17 ar
    35   17   18 ar
    36   17   48 1
    37   18   19 ar
    38   18   49 1
    39   19   20 ar
    40   19   22 1
    41   20   21 ar
    42   20   50 1
    43   21   51 1
    44   22   23 2
    45   22   24 am
    46   24   25 1
    47   24   52 1
    48   25   26 1
    49   25   31 1
    50   25   53 1
    51   26   27 1
    52   26   54 1
    53   26   55 1
    54   27   28 1
    55   27   56 1
    56   27   57 1
    57   28   29 2
    58   28   30 1
    59   31   32 2
    60   31   33 1
@<TRIPOS>MOLECULE
CHEMBL66389__12
   58    60     0     0     0
SMALL
USER_CHARGES

@<TRIPOS>ATOM
      1 C1         -0.0187    1.5258    0.0104 C.3       1 <0>        -0.1446
      2 C2          0.0021   -0.0041    0.0020 C.3       1 <0>         0.0036
      3 C3          0.6873   -0.4856   -1.2472 C.2       1 <0>        -0.3824
      4 C4          2.0063   -0.9021   -1.2415 C.2       1 <0>         0.4831
      5 N1          2.5778   -1.3167   -2.3805 N.2       1 <0>        -0.6236
      6 C5          1.9045   -1.3416   -3.5107 C.2       1 <0>         0.6588
      7 N2          0.6034   -0.9469   -3.5680 N.am      1 <0>        -0.6622
      8 C6         -0.0229   -0.5159   -2.4537 C.2       1 <0>         0.5548
      9 O1         -1.1892   -0.1573   -2.4965 O.2       1 <0>        -0.5469
     10 N3          2.5257   -1.7730   -4.6523 N.pl3     1 <0>        -0.8241
     11 N4          2.7451   -0.9025   -0.0735 N.pl3     1 <0>        -0.7068
     12 C7          2.2331   -0.1749    1.0954 C.3       1 <0>         0.1235
     13 C8          0.7424   -0.5070    1.2422 C.3       1 <0>        -0.0984
     14 C9          0.1835    0.1828    2.4883 C.3       1 <0>        -0.1096
     15 C10         0.8378   -0.4115    3.7370 C.3       1 <0>        -0.0782
     16 C11         0.2873    0.2679    4.9644 C.ar      1 <0>        -0.0772
     17 C12         0.9034    1.4045    5.4572 C.ar      1 <0>        -0.1289
     18 C13         0.4045    2.0314    6.5803 C.ar      1 <0>        -0.0646
     19 C14        -0.7244    1.5165    7.2196 C.ar      1 <0>        -0.1096
     20 C15        -1.3411    0.3696    6.7173 C.ar      1 <0>        -0.0826
     21 C16        -0.8354   -0.2443    5.5901 C.ar      1 <0>        -0.1235
     22 C17        -1.2642    2.1829    8.4240 C.2       1 <0>         0.5478
     23 O2         -0.7247    3.1813    8.8594 O.2       1 <0>        -0.5561
     24 N5         -2.3544    1.6832    9.0390 N.am      1 <0>        -0.6746
     25 C18        -2.8893    2.3435   10.2324 C.3       1 <0>         0.0726
     26 C19        -3.6636    1.3270   11.0738 C.3       1 <0>        -0.0812
     27 C20        -2.7006    0.2603   11.5987 C.3       1 <0>        -0.1775
     28 C21        -3.4634   -0.7410   12.4275 C.2       1 <0>         0.4911
     29 O3         -4.6658   -0.6132   12.5838 O.co2     1 <0>        -0.6973
     30 O4         -2.8781   -1.6788   12.9417 O.co2     1 <0>        -0.7200
     31 C22        -3.8128    3.4597    9.8175 C.2       1 <0>         0.4970
     32 O5         -4.1505    3.5699    8.6512 O.co2     1 <0>        -0.6974
     33 O6         -4.2223    4.2527   10.6482 O.co2     1 <0>        -0.7010
     34 H1          1.0039    1.9031    0.0027 H         1 <0>         0.0466
     35 H2         -0.5459    1.8868   -0.8726 H         1 <0>         0.0532
     36 H3         -0.5289    1.8773    0.9072 H         1 <0>         0.0619
     37 H4         -1.0214   -0.3787    0.0162 H         1 <0>         0.0795
     38 H5          3.4529   -2.0562   -4.6225 H         1 <0>         0.4268
     39 H6          2.0385   -1.7953   -5.4908 H         1 <0>         0.4139
     40 H7          3.5902   -1.3765   -0.0263 H         1 <0>         0.4066
     41 H8          2.7709   -0.4890    1.9900 H         1 <0>         0.0909
     42 H9          2.3588    0.8975    0.9462 H         1 <0>         0.0714
     43 H10         0.6154   -1.5859    1.3312 H         1 <0>         0.0780
     44 H11         0.3973    1.2505    2.4392 H         1 <0>         0.0739
     45 H12        -0.8947    0.0300    2.5353 H         1 <0>         0.0743
     46 H13         0.6239   -1.4792    3.7861 H         1 <0>         0.0714
     47 H14         1.9160   -0.2588    3.6900 H         1 <0>         0.0697
     48 H15         1.7770    1.8017    4.9617 H         1 <0>         0.1209
     49 H16         0.8866    2.9183    6.9642 H         1 <0>         0.1326
     50 H17        -2.2149   -0.0338    7.2074 H         1 <0>         0.1284
     51 H18        -1.3143   -1.1293    5.1978 H         1 <0>         0.1232
     52 H19        -2.7848    0.8865    8.6915 H         1 <0>         0.3900
     53 H20        -2.0676    2.7516   10.8209 H         1 <0>         0.0782
     54 H21        -4.1358    1.8355   11.9143 H         1 <0>         0.0771
     55 H22        -4.4293    0.8542   10.4586 H         1 <0>         0.0565
     56 H23        -2.2285   -0.2483   10.7582 H         1 <0>         0.0505
     57 H24        -1.9350    0.7330   12.2139 H         1 <0>         0.0526
     58 H25         0.1253   -0.9758   -4.4115 H         1 <0>         0.4079
@<TRIPOS>BOND
     1    1    2 1
     2    1   34 1
     3    1   35 1
     4    1   36 1
     5    2   13 1
     6    2    3 1
     7    2   37 1
     8    3    8 1
     9    3    4 2
    10    4    5 1
    11    4   11 1
    12    5    6 2
    13    6    7 1
    14    6   10 1
    15    7    8 am
    16    7   58 1
    17    8    9 2
    18   10   38 1
    19   10   39 1
    20   11   12 1
    21   11   40 1
    22   12   13 1
    23   12   41 1
    24   12   42 1
    25   13   14 1
    26   13   43 1
    27   14   15 1
    28   14   44 1
    29   14   45 1
    30   15   16 1
    31   15   46 1
    32   15   47 1
    33   16   21 ar
    34   16   17 ar
    35   17   18 ar
    36   17   48 1
    37   18   19 ar
    38   18   49 1
    39   19   20 ar
    40   19   22 1
    41   20   21 ar
    42   20   50 1
    43   21   51 1
    44   22   23 2
    45   22   24 am
    46   24   25 1
    47   24   52 1
    48   25   26 1
    49   25   31 1
    50   25   53 1
    51   26   27 1
    52   26   54 1
    53   26   55 1
    54   27   28 1
    55   27   56 1
    56   27   57 1
    57   28   29 2
    58   28   30 1
    59   31   32 2
    60   31   33 1
@<TRIPOS>MOLECULE
CHEMBL66389__13
   58    60     0     0     0
SMALL
USER_CHARGES

@<TRIPOS>ATOM
      1 C1         -0.0187    1.5258    0.0104 C.3       1 <0>        -0.1441
      2 C2          0.0021   -0.0041    0.0020 C.3       1 <0>        -0.0037
      3 C3          0.6865   -0.4856   -1.2480 C.2       1 <0>        -0.3360
      4 C4          1.9836   -0.8948   -1.2465 C.2       1 <0>         0.4440
      5 N1          2.5552   -1.3146   -2.4206 N.pl3     1 <0>        -0.6548
      6 C5          1.8278   -1.3255   -3.5708 C.2       1 <0>         0.6576
      7 N2          0.5711   -0.9362   -3.5841 N.2       1 <0>        -0.6354
      8 C6         -0.0329   -0.5151   -2.4622 C.2       1 <0>         0.5445
      9 O1         -1.2020   -0.1584   -2.4916 O.2       1 <0>        -0.5250
     10 N3          2.4140   -1.7484   -4.7342 N.pl3     1 <0>        -0.8259
     11 N4          2.7313   -0.9020   -0.0913 N.pl3     1 <0>        -0.7316
     12 C7          2.2344   -0.1813    1.0885 C.3       1 <0>         0.1286
     13 C8          0.7425   -0.5068    1.2423 C.3       1 <0>        -0.1011
     14 C9          0.1905    0.1901    2.4875 C.3       1 <0>        -0.1103
     15 C10         0.8447   -0.4038    3.7366 C.3       1 <0>        -0.0775
     16 C11         0.3011    0.2827    4.9630 C.ar      1 <0>        -0.0785
     17 C12         0.9248    1.4174    5.4506 C.ar      1 <0>        -0.1289
     18 C13         0.4323    2.0506    6.5729 C.ar      1 <0>        -0.0647
     19 C14        -0.6978    1.5442    7.2168 C.ar      1 <0>        -0.1087
     20 C15        -1.3223    0.3991    6.7197 C.ar      1 <0>        -0.0824
     21 C16        -0.8229   -0.2213    5.5932 C.ar      1 <0>        -0.1230
     22 C17        -1.2309    2.2174    8.4203 C.2       1 <0>         0.5475
     23 O2         -0.6847    3.2142    8.8512 O.2       1 <0>        -0.5560
     24 N5         -2.3223    1.7259    9.0397 N.am      1 <0>        -0.6743
     25 C18        -2.8505    2.3930   10.2323 C.3       1 <0>         0.0725
     26 C19        -3.6284    1.3836   11.0789 C.3       1 <0>        -0.0813
     27 C20        -2.6700    0.3132   11.6049 C.3       1 <0>        -0.1774
     28 C21        -3.4362   -0.6811   12.4388 C.2       1 <0>         0.4910
     29 O3         -4.6375   -0.5461   12.5977 O.co2     1 <0>        -0.6970
     30 O4         -2.8549   -1.6205   12.9546 O.co2     1 <0>        -0.7201
     31 C22        -3.7688    3.5131    9.8161 C.2       1 <0>         0.4969
     32 O5         -4.1088    3.6213    8.6503 O.co2     1 <0>        -0.6973
     33 O6         -4.1718    4.3110   10.6452 O.co2     1 <0>        -0.7008
     34 H1          1.0039    1.9031    0.0027 H         1 <0>         0.0457
     35 H2         -0.5459    1.8868   -0.8726 H         1 <0>         0.0579
     36 H3         -0.5289    1.8773    0.9072 H         1 <0>         0.0644
     37 H4         -1.0215   -0.3786    0.0165 H         1 <0>         0.0874
     38 H5          3.3401   -2.0369   -4.7337 H         1 <0>         0.4085
     39 H6          1.9030   -1.7595   -5.5587 H         1 <0>         0.4303
     40 H7          3.5761   -1.3774   -0.0563 H         1 <0>         0.4014
     41 H8          2.7769   -0.5073    1.9759 H         1 <0>         0.0935
     42 H9          2.3654    0.8916    0.9481 H         1 <0>         0.0742
     43 H10         0.6109   -1.5849    1.3349 H         1 <0>         0.0792
     44 H11         0.4103    1.2564    2.4345 H         1 <0>         0.0748
     45 H12        -0.8884    0.0435    2.5378 H         1 <0>         0.0764
     46 H13         0.6250   -1.4702    3.7896 H         1 <0>         0.0714
     47 H14         1.9236   -0.2573    3.6863 H         1 <0>         0.0684
     48 H15         1.7994    1.8080    4.9517 H         1 <0>         0.1204
     49 H16         0.9203    2.9361    6.9527 H         1 <0>         0.1327
     50 H17        -2.1970    0.0022    7.2133 H         1 <0>         0.1288
     51 H18        -1.3077   -1.1048    5.2050 H         1 <0>         0.1234
     52 H19        -2.7581    0.9304    8.6959 H         1 <0>         0.3901
     53 H20        -2.0250    2.7984   10.8174 H         1 <0>         0.0782
     54 H21        -4.0955    1.8975   11.9190 H         1 <0>         0.0773
     55 H22        -4.3982    0.9131   10.4672 H         1 <0>         0.0567
     56 H23        -2.2029   -0.2007   10.7648 H         1 <0>         0.0503
     57 H24        -1.9002    0.7836   12.2166 H         1 <0>         0.0525
     58 H25         3.4809   -1.6044   -2.4312 H         1 <0>         0.4091
@<TRIPOS>BOND
     1    1    2 1
     2    1   34 1
     3    1   35 1
     4    1   36 1
     5    2   13 1
     6    2    3 1
     7    2   37 1
     8    3    8 1
     9    3    4 2
    10    4    5 1
    11    4   11 1
    12    5    6 1
    13    5   58 1
    14    6    7 2
    15    6   10 1
    16    7    8 1
    17    8    9 2
    18   10   38 1
    19   10   39 1
    20   11   12 1
    21   11   40 1
    22   12   13 1
    23   12   41 1
    24   12   42 1
    25   13   14 1
    26   13   43 1
    27   14   15 1
    28   14   44 1
    29   14   45 1
    30   15   16 1
    31   15   46 1
    32   15   47 1
    33   16   21 ar
    34   16   17 ar
    35   17   18 ar
    36   17   48 1
    37   18   19 ar
    38   18   49 1
    39   19   20 ar
    40   19   22 1
    41   20   21 ar
    42   20   50 1
    43   21   51 1
    44   22   23 2
    45   22   24 am
    46   24   25 1
    47   24   52 1
    48   25   26 1
    49   25   31 1
    50   25   53 1
    51   26   27 1
    52   26   54 1
    53   26   55 1
    54   27   28 1
    55   27   56 1
    56   27   57 1
    57   28   29 2
    58   28   30 1
    59   31   32 2
    60   31   33 1
@<TRIPOS>MOLECULE
CHEMBL66389__14
   58    60     0     0     0
SMALL
USER_CHARGES

@<TRIPOS>ATOM
      1 C1         -0.0187    1.5258    0.0104 C.3       1 <0>        -0.1444
      2 C2          0.0021   -0.0041    0.0020 C.3       1 <0>         0.0035
      3 C3          0.6873   -0.4856   -1.2472 C.2       1 <0>        -0.3823
      4 C4          2.0063   -0.9021   -1.2415 C.2       1 <0>         0.4831
      5 N1          2.5778   -1.3167   -2.3805 N.2       1 <0>        -0.6236
      6 C5          1.9045   -1.3416   -3.5107 C.2       1 <0>         0.6588
      7 N2          0.6034   -0.9469   -3.5680 N.am      1 <0>        -0.6621
      8 C6         -0.0229   -0.5159   -2.4537 C.2       1 <0>         0.5547
      9 O1         -1.1892   -0.1573   -2.4965 O.2       1 <0>        -0.5464
     10 N3          2.5257   -1.7730   -4.6523 N.pl3     1 <0>        -0.8241
     11 N4          2.7451   -0.9025   -0.0735 N.pl3     1 <0>        -0.7069
     12 C7          2.2331   -0.1749    1.0954 C.3       1 <0>         0.1235
     13 C8          0.7424   -0.5070    1.2422 C.3       1 <0>        -0.0984
     14 C9          0.1835    0.1828    2.4883 C.3       1 <0>        -0.1095
     15 C10         0.8378   -0.4115    3.7370 C.3       1 <0>        -0.0785
     16 C11         0.2873    0.2679    4.9644 C.ar      1 <0>        -0.0764
     17 C12         0.9034    1.4045    5.4572 C.ar      1 <0>        -0.1289
     18 C13         0.4045    2.0314    6.5803 C.ar      1 <0>        -0.0643
     19 C14        -0.7244    1.5165    7.2196 C.ar      1 <0>        -0.1114
     20 C15        -1.3411    0.3696    6.7173 C.ar      1 <0>        -0.0822
     21 C16        -0.8354   -0.2443    5.5901 C.ar      1 <0>        -0.1234
     22 C17        -1.2642    2.1829    8.4240 C.2       1 <0>         0.5431
     23 O2         -0.7247    3.1813    8.8594 O.2       1 <0>        -0.5538
     24 N5         -2.3544    1.6832    9.0390 N.am      1 <0>        -0.6753
     25 C18        -2.8893    2.3435   10.2324 C.3       1 <0>         0.0735
     26 C19        -4.3784    2.0201   10.3699 C.3       1 <0>        -0.0824
     27 C20        -5.1434    2.6291    9.1932 C.3       1 <0>        -0.1773
     28 C21        -6.6101    2.3106    9.3287 C.2       1 <0>         0.4912
     29 O3         -7.0067    1.6570   10.2784 O.co2     1 <0>        -0.6978
     30 O4         -7.4000    2.7065    8.4886 O.co2     1 <0>        -0.7192
     31 C22        -2.1534    1.8505   11.4516 C.2       1 <0>         0.4985
     32 O5         -2.0143    2.5821   12.4170 O.co2     1 <0>        -0.7012
     33 O6         -1.6972    0.7201   11.4727 O.co2     1 <0>        -0.6988
     34 H1          1.0039    1.9031    0.0027 H         1 <0>         0.0465
     35 H2         -0.5459    1.8868   -0.8726 H         1 <0>         0.0533
     36 H3         -0.5289    1.8773    0.9072 H         1 <0>         0.0617
     37 H4         -1.0214   -0.3787    0.0162 H         1 <0>         0.0797
     38 H5          3.4529   -2.0562   -4.6225 H         1 <0>         0.4268
     39 H6          2.0385   -1.7953   -5.4908 H         1 <0>         0.4139
     40 H7          3.5902   -1.3765   -0.0263 H         1 <0>         0.4065
     41 H8          2.7709   -0.4890    1.9900 H         1 <0>         0.0908
     42 H9          2.3588    0.8975    0.9462 H         1 <0>         0.0713
     43 H10         0.6154   -1.5859    1.3312 H         1 <0>         0.0781
     44 H11         0.3973    1.2505    2.4392 H         1 <0>         0.0737
     45 H12        -0.8947    0.0300    2.5353 H         1 <0>         0.0744
     46 H13         0.6239   -1.4792    3.7861 H         1 <0>         0.0715
     47 H14         1.9160   -0.2588    3.6900 H         1 <0>         0.0698
     48 H15         1.7770    1.8017    4.9617 H         1 <0>         0.1212
     49 H16         0.8866    2.9183    6.9642 H         1 <0>         0.1328
     50 H17        -2.2149   -0.0338    7.2074 H         1 <0>         0.1291
     51 H18        -1.3143   -1.1293    5.1978 H         1 <0>         0.1236
     52 H19        -2.7848    0.8865    8.6915 H         1 <0>         0.3915
     53 H20        -2.7586    3.4217   10.1404 H         1 <0>         0.0779
     54 H21        -4.5166    0.9389   10.3726 H         1 <0>         0.0602
     55 H22        -4.7560    2.4370   11.3036 H         1 <0>         0.0727
     56 H23        -5.0051    3.7103    9.1905 H         1 <0>         0.0527
     57 H24        -4.7658    2.2122    8.2595 H         1 <0>         0.0512
     58 H25         0.1253   -0.9758   -4.4115 H         1 <0>         0.4079
@<TRIPOS>BOND
     1    1    2 1
     2    1   34 1
     3    1   35 1
     4    1   36 1
     5    2   13 1
     6    2    3 1
     7    2   37 1
     8    3    8 1
     9    3    4 2
    10    4    5 1
    11    4   11 1
    12    5    6 2
    13    6    7 1
    14    6   10 1
    15    7    8 am
    16    7   58 1
    17    8    9 2
    18   10   38 1
    19   10   39 1
    20   11   12 1
    21   11   40 1
    22   12   13 1
    23   12   41 1
    24   12   42 1
    25   13   14 1
    26   13   43 1
    27   14   15 1
    28   14   44 1
    29   14   45 1
    30   15   16 1
    31   15   46 1
    32   15   47 1
    33   16   21 ar
    34   16   17 ar
    35   17   18 ar
    36   17   48 1
    37   18   19 ar
    38   18   49 1
    39   19   20 ar
    40   19   22 1
    41   20   21 ar
    42   20   50 1
    43   21   51 1
    44   22   23 2
    45   22   24 am
    46   24   25 1
    47   24   52 1
    48   25   26 1
    49   25   31 1
    50   25   53 1
    51   26   27 1
    52   26   54 1
    53   26   55 1
    54   27   28 1
    55   27   56 1
    56   27   57 1
    57   28   29 2
    58   28   30 1
    59   31   32 2
    60   31   33 1
@<TRIPOS>MOLECULE
CHEMBL66389__15
   58    60     0     0     0
SMALL
USER_CHARGES

@<TRIPOS>ATOM
      1 C1         -0.0187    1.5258    0.0104 C.3       1 <0>        -0.1439
      2 C2          0.0021   -0.0041    0.0020 C.3       1 <0>        -0.0039
      3 C3          0.6865   -0.4856   -1.2480 C.2       1 <0>        -0.3358
      4 C4          1.9836   -0.8948   -1.2465 C.2       1 <0>         0.4439
      5 N1          2.5552   -1.3146   -2.4206 N.pl3     1 <0>        -0.6548
      6 C5          1.8278   -1.3255   -3.5708 C.2       1 <0>         0.6575
      7 N2          0.5711   -0.9362   -3.5841 N.2       1 <0>        -0.6352
      8 C6         -0.0329   -0.5151   -2.4622 C.2       1 <0>         0.5444
      9 O1         -1.2020   -0.1584   -2.4916 O.2       1 <0>        -0.5245
     10 N3          2.4140   -1.7484   -4.7342 N.pl3     1 <0>        -0.8259
     11 N4          2.7313   -0.9020   -0.0913 N.pl3     1 <0>        -0.7317
     12 C7          2.2344   -0.1813    1.0885 C.3       1 <0>         0.1287
     13 C8          0.7425   -0.5068    1.2423 C.3       1 <0>        -0.1011
     14 C9          0.1905    0.1901    2.4875 C.3       1 <0>        -0.1102
     15 C10         0.8447   -0.4038    3.7366 C.3       1 <0>        -0.0777
     16 C11         0.3011    0.2827    4.9630 C.ar      1 <0>        -0.0776
     17 C12         0.9248    1.4174    5.4506 C.ar      1 <0>        -0.1290
     18 C13         0.4323    2.0506    6.5729 C.ar      1 <0>        -0.0644
     19 C14        -0.6978    1.5442    7.2168 C.ar      1 <0>        -0.1105
     20 C15        -1.3223    0.3991    6.7197 C.ar      1 <0>        -0.0819
     21 C16        -0.8229   -0.2213    5.5932 C.ar      1 <0>        -0.1229
     22 C17        -1.2309    2.2174    8.4203 C.2       1 <0>         0.5428
     23 O2         -0.6847    3.2142    8.8512 O.2       1 <0>        -0.5537
     24 N5         -2.3223    1.7259    9.0397 N.am      1 <0>        -0.6749
     25 C18        -2.8505    2.3930   10.2323 C.3       1 <0>         0.0735
     26 C19        -4.3410    2.0784   10.3746 C.3       1 <0>        -0.0824
     27 C20        -5.1055    2.6879    9.1978 C.3       1 <0>        -0.1773
     28 C21        -6.5736    2.3780    9.3381 C.2       1 <0>         0.4911
     29 O3         -6.9716    1.7298   10.2909 O.co2     1 <0>        -0.6978
     30 O4         -7.3635    2.7756    8.4987 O.co2     1 <0>        -0.7189
     31 C22        -2.1143    1.8999   11.4512 C.2       1 <0>         0.4985
     32 O5         -1.9687    2.6338   12.4139 O.co2     1 <0>        -0.7009
     33 O6         -1.6643    0.7669   11.4748 O.co2     1 <0>        -0.6991
     34 H1          1.0039    1.9031    0.0027 H         1 <0>         0.0456
     35 H2         -0.5459    1.8868   -0.8726 H         1 <0>         0.0580
     36 H3         -0.5289    1.8773    0.9072 H         1 <0>         0.0642
     37 H4         -1.0215   -0.3786    0.0165 H         1 <0>         0.0876
     38 H5          3.3401   -2.0369   -4.7337 H         1 <0>         0.4085
     39 H6          1.9030   -1.7595   -5.5587 H         1 <0>         0.4303
     40 H7          3.5761   -1.3774   -0.0563 H         1 <0>         0.4014
     41 H8          2.7769   -0.5073    1.9759 H         1 <0>         0.0934
     42 H9          2.3654    0.8916    0.9481 H         1 <0>         0.0741
     43 H10         0.6109   -1.5849    1.3349 H         1 <0>         0.0792
     44 H11         0.4103    1.2564    2.4345 H         1 <0>         0.0746
     45 H12        -0.8884    0.0435    2.5378 H         1 <0>         0.0765
     46 H13         0.6250   -1.4702    3.7896 H         1 <0>         0.0715
     47 H14         1.9236   -0.2573    3.6863 H         1 <0>         0.0685
     48 H15         1.7994    1.8080    4.9517 H         1 <0>         0.1207
     49 H16         0.9203    2.9361    6.9527 H         1 <0>         0.1329
     50 H17        -2.1970    0.0022    7.2133 H         1 <0>         0.1295
     51 H18        -1.3077   -1.1048    5.2050 H         1 <0>         0.1238
     52 H19        -2.7581    0.9304    8.6959 H         1 <0>         0.3915
     53 H20        -2.7140    3.4702   10.1365 H         1 <0>         0.0780
     54 H21        -4.4853    0.9980   10.3812 H         1 <0>         0.0602
     55 H22        -4.7139    2.5004   11.3079 H         1 <0>         0.0728
     56 H23        -4.9612    3.7683    9.1913 H         1 <0>         0.0528
     57 H24        -4.7326    2.2659    8.2646 H         1 <0>         0.0512
     58 H25         3.4809   -1.6044   -2.4312 H         1 <0>         0.4091
@<TRIPOS>BOND
     1    1    2 1
     2    1   34 1
     3    1   35 1
     4    1   36 1
     5    2   13 1
     6    2    3 1
     7    2   37 1
     8    3    8 1
     9    3    4 2
    10    4    5 1
    11    4   11 1
    12    5    6 1
    13    5   58 1
    14    6    7 2
    15    6   10 1
    16    7    8 1
    17    8    9 2
    18   10   38 1
    19   10   39 1
    20   11   12 1
    21   11   40 1
    22   12   13 1
    23   12   41 1
    24   12   42 1
    25   13   14 1
    26   13   43 1
    27   14   15 1
    28   14   44 1
    29   14   45 1
    30   15   16 1
    31   15   46 1
    32   15   47 1
    33   16   21 ar
    34   16   17 ar
    35   17   18 ar
    36   17   48 1
    37   18   19 ar
    38   18   49 1
    39   19   20 ar
    40   19   22 1
    41   20   21 ar
    42   20   50 1
    43   21   51 1
    44   22   23 2
    45   22   24 am
    46   24   25 1
    47   24   52 1
    48   25   26 1
    49   25   31 1
    50   25   53 1
    51   26   27 1
    52   26   54 1
    53   26   55 1
    54   27   28 1
    55   27   56 1
    56   27   57 1
    57   28   29 2
    58   28   30 1
    59   31   32 2
    60   31   33 1
@<TRIPOS>MOLECULE
CHEMBL452324
   58    59     0     0     0
SMALL
USER_CHARGES

@<TRIPOS>ATOM
      1 C1          0.2655    0.7942   -1.1785 C.3       1 <0>         0.0311
      2 O1         -0.0045    0.0869    0.0334 O.3       1 <0>        -0.3745
      3 C2         -1.3009   -0.5125    0.0801 C.3       1 <0>         0.1351
      4 H1         -2.0041    0.0981   -0.4862 H         1 <0>         0.0658
      5 C3         -1.7658   -0.6095    1.5346 C.3       1 <0>        -0.1121
      6 C4         -1.9571    0.7977    2.1037 C.3       1 <0>        -0.1075
      7 C5         -2.5105    0.7013    3.5269 C.3       1 <0>        -0.0280
      8 C6         -2.6989    2.0874    4.0875 C.2       1 <0>        -0.3959
      9 C7         -3.9330    2.7177    4.0152 C.2       1 <0>         0.4866
     10 N1         -4.0801    3.9486    4.5193 N.2       1 <0>        -0.6246
     11 C8         -3.0722    4.5775    5.0858 C.2       1 <0>         0.6621
     12 N2         -1.8422    4.0028    5.1812 N.am      1 <0>        -0.6619
     13 H2         -1.1140    4.4854    5.6027 H         1 <0>         0.4081
     14 C9         -1.6350    2.7609    4.6959 C.2       1 <0>         0.5552
     15 O2         -0.5360    2.2360    4.7820 O.2       1 <0>        -0.5443
     16 N3         -3.2650    5.8363    5.5893 N.pl3     1 <0>        -0.8232
     17 N4         -5.0043    2.0779    3.4252 N.pl3     1 <0>        -0.8277
     18 C10        -1.2378   -1.8933   -0.5202 C.ar      1 <0>        -0.1100
     19 C11        -0.1523   -2.7099   -0.2570 C.ar      1 <0>        -0.1042
     20 C12        -0.0884   -3.9750   -0.8034 C.ar      1 <0>        -0.0686
     21 C13        -1.1219   -4.4307   -1.6234 C.ar      1 <0>        -0.1051
     22 C14        -2.2140   -3.6019   -1.8850 C.ar      1 <0>        -0.0868
     23 C15        -2.2683   -2.3410   -1.3277 C.ar      1 <0>        -0.1194
     24 C16        -1.0597   -5.7852   -2.2128 C.2       1 <0>         0.5429
     25 O3         -0.1072   -6.5046   -1.9836 O.2       1 <0>        -0.5520
     26 N5         -2.0593   -6.2222   -3.0042 N.am      1 <0>        -0.6753
     27 C17        -1.9978   -7.5644   -3.5882 C.3       1 <0>         0.0734
     28 H3         -1.5193   -8.2453   -2.8843 H         1 <0>         0.0781
     29 C18        -3.4153   -8.0551   -3.8892 C.3       1 <0>        -0.0822
     30 C19        -4.1873   -8.2190   -2.5784 C.3       1 <0>        -0.1773
     31 C20        -5.5836   -8.7024   -2.8748 C.2       1 <0>         0.4913
     32 O4         -5.9292   -8.8977   -4.0276 O.co2     1 <0>        -0.6977
     33 O5         -6.3676   -8.8982   -1.9619 O.co2     1 <0>        -0.7195
     34 C21        -1.1997   -7.5202   -4.8657 C.2       1 <0>         0.4984
     35 O6         -0.5658   -8.4986   -5.2227 O.co2     1 <0>        -0.7009
     36 O7         -1.1878   -6.5060   -5.5423 O.co2     1 <0>        -0.6990
     37 H4          1.2699    1.2156   -1.1373 H         1 <0>         0.0819
     38 H5          0.1935    0.1088   -2.0230 H         1 <0>         0.0444
     39 H6         -0.4610    1.5977   -1.2998 H         1 <0>         0.0369
     40 H7         -2.7108   -1.1509    1.5786 H         1 <0>         0.0771
     41 H8         -1.0156   -1.1398    2.1212 H         1 <0>         0.0753
     42 H9         -0.9984    1.3161    2.1210 H         1 <0>         0.0700
     43 H10        -2.6579    1.3505    1.4781 H         1 <0>         0.0510
     44 H11        -3.4691    0.1829    3.5097 H         1 <0>         0.0558
     45 H12        -1.8097    0.1486    4.1525 H         1 <0>         0.0719
     46 H13        -4.1375    6.2554    5.5264 H         1 <0>         0.4271
     47 H14        -2.5291    6.3088    6.0089 H         1 <0>         0.4144
     48 H15        -4.8954    1.1859    3.0601 H         1 <0>         0.4172
     49 H16        -5.8661    2.5203    3.3756 H         1 <0>         0.4043
     50 H17         0.6469   -2.3560    0.3774 H         1 <0>         0.1275
     51 H18         0.7596   -4.6113   -0.5974 H         1 <0>         0.1340
     52 H19        -3.0170   -3.9485   -2.5187 H         1 <0>         0.1299
     53 H20        -3.1149   -1.7004   -1.5257 H         1 <0>         0.1227
     54 H21        -2.8195   -5.6481   -3.1871 H         1 <0>         0.3912
     55 H22        -3.9246   -7.3285   -4.5223 H         1 <0>         0.0600
     56 H23        -3.3660   -9.0145   -4.4042 H         1 <0>         0.0727
     57 H24        -3.6781   -8.9456   -1.9452 H         1 <0>         0.0529
     58 H25        -4.2366   -7.2597   -2.0633 H         1 <0>         0.0511
@<TRIPOS>BOND
     1    1    2 1
     2    1   37 1
     3    1   38 1
     4    1   39 1
     5    2    3 1
     6    3    4 1
     7    3    5 1
     8    3   18 1
     9    5    6 1
    10    5   40 1
    11    5   41 1
    12    6    7 1
    13    6   42 1
    14    6   43 1
    15    7    8 1
    16    7   44 1
    17    7   45 1
    18    8   14 1
    19    8    9 2
    20    9   10 1
    21    9   17 1
    22   10   11 2
    23   11   12 1
    24   11   16 1
    25   12   13 1
    26   12   14 am
    27   14   15 2
    28   16   46 1
    29   16   47 1
    30   17   48 1
    31   17   49 1
    32   18   23 ar
    33   18   19 ar
    34   19   20 ar
    35   19   50 1
    36   20   21 ar
    37   20   51 1
    38   21   22 ar
    39   21   24 1
    40   22   23 ar
    41   22   52 1
    42   23   53 1
    43   24   25 2
    44   24   26 am
    45   26   27 1
    46   26   54 1
    47   27   28 1
    48   27   29 1
    49   27   34 1
    50   29   30 1
    51   29   55 1
    52   29   56 1
    53   30   31 1
    54   30   57 1
    55   30   58 1
    56   31   32 2
    57   31   33 1
    58   34   35 2
    59   34   36 1
@<TRIPOS>MOLECULE
CHEMBL378704
   58    60     0     0     0
SMALL
USER_CHARGES

@<TRIPOS>ATOM
      1 C1         -0.0167    1.3794    0.0096 C.ar      1 <0>        -0.1265
      2 C2          1.1667    2.0884    0.0021 C.ar      1 <0>        -0.0619
      3 C3          2.3848    1.4070   -0.0132 C.ar      1 <0>        -0.1147
      4 C4          2.3966    0.0113   -0.0208 C.ar      1 <0>        -0.0827
      5 C5          1.2061   -0.6856   -0.0132 C.ar      1 <0>        -0.1215
      6 C6          0.0021   -0.0041    0.0020 C.ar      1 <0>        -0.0744
      7 C7         -1.2946   -0.7719    0.0103 C.3       1 <0>        -0.0849
      8 C8         -1.7472   -1.0241   -1.4293 C.3       1 <0>        -0.1033
      9 C9         -3.0637   -1.8037   -1.4209 C.3       1 <0>        -0.1079
     10 H1         -2.9443   -2.7169   -0.8380 H         1 <0>         0.1013
     11 C10        -3.4599   -2.1585   -2.8565 C.3       1 <0>        -0.1042
     12 C11        -4.8162   -2.8481   -2.8659 C.3       1 <0>        -0.1527
     13 C12        -5.8706   -2.0173   -2.1353 C.3       1 <0>         0.2861
     14 N1         -5.4170   -1.7076   -0.7724 N.4       1 <0>        -0.5224
     15 C13        -4.1683   -0.9406   -0.8038 C.3       1 <0>        -0.0046
     16 N2         -7.0762   -2.8702   -2.0164 N.pl3     1 <0>        -0.7672
     17 C14        -6.8847   -4.1014   -1.4015 C.2       1 <0>         0.5604
     18 N3         -5.7202   -4.7682   -1.6347 N.2       1 <0>        -0.6877
     19 C15        -4.7387   -4.2282   -2.2897 C.2       1 <0>         0.4409
     20 O1         -3.6075   -4.9360   -2.4582 O.3       1 <0>        -0.6479
     21 N4         -7.7998   -4.6073   -0.6178 N.2       1 <0>        -0.7768
     22 C16         3.6569    2.1603   -0.0218 C.2       1 <0>         0.5535
     23 O2          3.6435    3.3757   -0.0155 O.2       1 <0>        -0.5428
     24 N5          4.8314    1.4994   -0.0366 N.am      1 <0>        -0.6894
     25 C17         6.0919    2.2459   -0.0451 C.3       1 <0>         0.0752
     26 C18         7.1909    1.3839   -0.6698 C.3       1 <0>        -0.0989
     27 C19         6.8626    1.1271   -2.1419 C.3       1 <0>        -0.1143
     28 C20         7.9450    0.2781   -2.7573 C.2       1 <0>         0.4718
     29 O3          8.8828   -0.0843   -2.0871 O.2       1 <0>        -0.5103
     30 O4          7.8673   -0.0754   -4.0498 O.3       1 <0>        -0.5128
     31 C21         6.4748    2.6012    1.3685 C.2       1 <0>         0.4925
     32 O5          5.8674    2.1124    2.3058 O.co2     1 <0>        -0.6843
     33 O6          7.3921    3.3775    1.5748 O.co2     1 <0>        -0.6929
     34 H2         -0.9598    1.9054    0.0260 H         1 <0>         0.1228
     35 H3          1.1508    3.1682    0.0077 H         1 <0>         0.1350
     36 H4          3.3358   -0.5219   -0.0330 H         1 <0>         0.1270
     37 H5          1.2138   -1.7656   -0.0191 H         1 <0>         0.1269
     38 H6         -1.1489   -1.7256    0.5176 H         1 <0>         0.0791
     39 H7         -2.0557   -0.1941    0.5345 H         1 <0>         0.0694
     40 H8         -1.8929   -0.0704   -1.9367 H         1 <0>         0.0746
     41 H9         -0.9861   -1.6019   -1.9536 H         1 <0>         0.0871
     42 H10        -3.5130   -1.2476   -3.4529 H         1 <0>         0.0744
     43 H11        -2.7126   -2.8274   -3.2834 H         1 <0>         0.1072
     44 H12        -5.1390   -2.9369   -3.9032 H         1 <0>         0.1194
     45 H13        -6.0875   -1.1017   -2.6855 H         1 <0>         0.1556
     46 H14        -6.1269   -1.1683   -0.2998 H         1 <0>         0.4199
     47 H15        -3.8859   -0.6577    0.2103 H         1 <0>         0.1317
     48 H16        -4.3099   -0.0439   -1.4071 H         1 <0>         0.1300
     49 H17        -7.9434   -2.5871   -2.3463 H         1 <0>         0.4157
     50 H18        -7.6540   -5.4678   -0.1944 H         1 <0>         0.3496
     51 H19         4.8421    0.5294   -0.0416 H         1 <0>         0.3902
     52 H20         5.9699    3.1583   -0.6287 H         1 <0>         0.0882
     53 H21         8.1462    1.9034   -0.5958 H         1 <0>         0.0926
     54 H22         7.2523    0.4333   -0.1400 H         1 <0>         0.0726
     55 H23         5.9072    0.6076   -2.2159 H         1 <0>         0.1015
     56 H24         6.8012    2.0777   -2.6717 H         1 <0>         0.1062
     57 H25         8.6068   -0.6193   -4.3539 H         1 <0>         0.4025
     58 H26        -5.2635   -2.5684   -0.2689 H         1 <0>         0.4263
@<TRIPOS>BOND
     1    1    6 ar
     2    1    2 ar
     3    1   34 1
     4    2    3 ar
     5    2   35 1
     6    3    4 ar
     7    3   22 1
     8    4    5 ar
     9    4   36 1
    10    5    6 ar
    11    5   37 1
    12    6    7 1
    13    7    8 1
    14    7   38 1
    15    7   39 1
    16    8    9 1
    17    8   40 1
    18    8   41 1
    19    9   10 1
    20    9   15 1
    21    9   11 1
    22   11   42 1
    23   11   43 1
    24   11   12 1
    25   12   19 1
    26   12   13 1
    27   12   44 1
    28   13   14 1
    29   13   16 1
    30   13   45 1
    31   14   15 1
    32   14   46 1
    33   14   58 1
    34   15   47 1
    35   15   48 1
    36   16   49 1
    37   16   17 1
    38   17   21 2
    39   17   18 1
    40   18   19 2
    41   19   20 1
    42   21   50 1
    43   22   23 2
    44   22   24 am
    45   24   25 1
    46   24   51 1
    47   25   26 1
    48   25   31 1
    49   25   52 1
    50   26   27 1
    51   26   53 1
    52   26   54 1
    53   27   28 1
    54   27   55 1
    55   27   56 1
    56   28   29 2
    57   28   30 1
    58   30   57 1
    59   31   32 2
    60   31   33 1
@<TRIPOS>MOLECULE
CHEMBL378704__1
   58    60     0     0     0
SMALL
USER_CHARGES

@<TRIPOS>ATOM
      1 C1         -0.0167    1.3794    0.0096 C.ar      1 <0>        -0.1279
      2 C2          1.1667    2.0884    0.0021 C.ar      1 <0>        -0.0651
      3 C3          2.3848    1.4070   -0.0132 C.ar      1 <0>        -0.0969
      4 C4          2.3966    0.0113   -0.0208 C.ar      1 <0>        -0.0812
      5 C5          1.2061   -0.6856   -0.0132 C.ar      1 <0>        -0.1196
      6 C6          0.0021   -0.0041    0.0020 C.ar      1 <0>        -0.0941
      7 C7         -1.2946   -0.7719    0.0103 C.3       1 <0>        -0.0771
      8 C8         -1.7472   -1.0241   -1.4293 C.3       1 <0>        -0.1086
      9 C9         -3.0637   -1.8037   -1.4209 C.3       1 <0>        -0.1122
     10 H1         -2.9439   -2.7168   -0.8379 H         1 <0>         0.1002
     11 C10        -3.4589   -2.1593   -2.8565 C.3       1 <0>        -0.1148
     12 C11        -4.8140   -2.8552   -2.8627 C.3       1 <0>        -0.1852
     13 C12        -5.8670   -2.0052   -2.1445 C.3       1 <0>         0.2849
     14 N1         -5.4195   -1.7031   -0.7781 N.4       1 <0>        -0.5259
     15 C13        -4.1675   -0.9408   -0.8027 C.3       1 <0>        -0.0089
     16 N2         -7.0860   -2.8357   -2.0452 N.pl3     1 <0>        -0.7650
     17 C14        -6.9483   -4.0897   -1.5192 C.2       1 <0>         0.6793
     18 N3         -5.7906   -4.7265   -1.5937 N.2       1 <0>        -0.6636
     19 C15        -4.7306   -4.2020   -2.1988 C.2       1 <0>         0.5009
     20 O1         -3.6825   -4.8170   -2.2161 O.2       1 <0>        -0.4423
     21 N4         -8.0112   -4.6887   -0.9130 N.pl3     1 <0>        -0.7933
     22 C16         3.6569    2.1603   -0.0218 C.2       1 <0>         0.5424
     23 O2          3.6435    3.3757   -0.0155 O.2       1 <0>        -0.5524
     24 N5          4.8314    1.4994   -0.0366 N.am      1 <0>        -0.6705
     25 C17         6.0919    2.2459   -0.0451 C.3       1 <0>         0.0718
     26 C18         7.1909    1.3839   -0.6698 C.3       1 <0>        -0.0824
     27 C19         6.8626    1.1271   -2.1419 C.3       1 <0>        -0.1768
     28 C20         7.9450    0.2781   -2.7573 C.2       1 <0>         0.4901
     29 O3          8.8913   -0.0876   -2.0810 O.co2     1 <0>        -0.6951
     30 O4          7.8745   -0.0430   -3.9313 O.co2     1 <0>        -0.7192
     31 C21         6.4748    2.6012    1.3685 C.2       1 <0>         0.4969
     32 O5          5.8674    2.1124    2.3058 O.co2     1 <0>        -0.6995
     33 O6          7.3921    3.3775    1.5748 O.co2     1 <0>        -0.6962
     34 H2         -0.9598    1.9054    0.0260 H         1 <0>         0.1185
     35 H3          1.1508    3.1682    0.0077 H         1 <0>         0.1355
     36 H4          3.3358   -0.5219   -0.0330 H         1 <0>         0.1324
     37 H5          1.2138   -1.7656   -0.0191 H         1 <0>         0.1243
     38 H6         -1.1489   -1.7256    0.5176 H         1 <0>         0.0765
     39 H7         -2.0557   -0.1941    0.5345 H         1 <0>         0.0658
     40 H8         -1.8929   -0.0704   -1.9367 H         1 <0>         0.0807
     41 H9         -0.9861   -1.6019   -1.9536 H         1 <0>         0.0933
     42 H10        -3.5168   -1.2484   -3.4524 H         1 <0>         0.0956
     43 H11        -2.7085   -2.8238   -3.2848 H         1 <0>         0.1150
     44 H12        -5.1346   -2.9917   -3.8955 H         1 <0>         0.1469
     45 H13        -6.0606   -1.0858   -2.6971 H         1 <0>         0.1848
     46 H14        -6.1295   -1.1633   -0.3063 H         1 <0>         0.4293
     47 H15        -3.8871   -0.6640    0.2136 H         1 <0>         0.1466
     48 H16        -4.3040   -0.0403   -1.4016 H         1 <0>         0.1419
     49 H17        -7.9483   -2.5042   -2.3410 H         1 <0>         0.4313
     50 H18        -8.8614   -4.2253   -0.8560 H         1 <0>         0.4200
     51 H19        -7.9177   -5.5785   -0.5384 H         1 <0>         0.4385
     52 H20         4.8421    0.5294   -0.0416 H         1 <0>         0.3899
     53 H21         5.9699    3.1583   -0.6287 H         1 <0>         0.0796
     54 H22         8.1462    1.9034   -0.5958 H         1 <0>         0.0793
     55 H23         7.2523    0.4333   -0.1400 H         1 <0>         0.0571
     56 H24         5.9072    0.6076   -2.2159 H         1 <0>         0.0483
     57 H25         6.8012    2.0777   -2.6717 H         1 <0>         0.0528
     58 H26        -5.2723   -2.5663   -0.2768 H         1 <0>         0.4234
@<TRIPOS>BOND
     1    1    6 ar
     2    1    2 ar
     3    1   34 1
     4    2    3 ar
     5    2   35 1
     6    3    4 ar
     7    3   22 1
     8    4    5 ar
     9    4   36 1
    10    5    6 ar
    11    5   37 1
    12    6    7 1
    13    7    8 1
    14    7   38 1
    15    7   39 1
    16    8    9 1
    17    8   40 1
    18    8   41 1
    19    9   10 1
    20    9   15 1
    21    9   11 1
    22   11   12 1
    23   11   42 1
    24   11   43 1
    25   12   19 1
    26   12   13 1
    27   12   44 1
    28   13   14 1
    29   13   16 1
    30   13   45 1
    31   14   15 1
    32   14   46 1
    33   14   58 1
    34   15   47 1
    35   15   48 1
    36   16   17 1
    37   16   49 1
    38   17   18 2
    39   17   21 1
    40   18   19 1
    41   19   20 2
    42   21   50 1
    43   21   51 1
    44   22   23 2
    45   22   24 am
    46   24   25 1
    47   24   52 1
    48   25   26 1
    49   25   31 1
    50   25   53 1
    51   26   27 1
    52   26   54 1
    53   26   55 1
    54   27   28 1
    55   27   56 1
    56   27   57 1
    57   28   29 2
    58   28   30 1
    59   31   32 2
    60   31   33 1
@<TRIPOS>MOLECULE
CHEMBL378704__2
   58    60     0     0     0
SMALL
USER_CHARGES

@<TRIPOS>ATOM
      1 C1         -0.0167    1.3794    0.0096 C.ar      1 <0>        -0.1266
      2 C2          1.1667    2.0884    0.0021 C.ar      1 <0>        -0.0617
      3 C3          2.3848    1.4070   -0.0132 C.ar      1 <0>        -0.1164
      4 C4          2.3966    0.0113   -0.0208 C.ar      1 <0>        -0.0823
      5 C5          1.2061   -0.6856   -0.0132 C.ar      1 <0>        -0.1215
      6 C6          0.0021   -0.0041    0.0020 C.ar      1 <0>        -0.0739
      7 C7         -1.2946   -0.7719    0.0103 C.3       1 <0>        -0.0840
      8 C8         -1.7472   -1.0241   -1.4293 C.3       1 <0>        -0.1051
      9 C9         -3.0637   -1.8037   -1.4209 C.3       1 <0>        -0.1072
     10 H1         -2.9443   -2.7169   -0.8380 H         1 <0>         0.1010
     11 C10        -3.4599   -2.1585   -2.8565 C.3       1 <0>        -0.1051
     12 C11        -4.8162   -2.8481   -2.8659 C.3       1 <0>        -0.1527
     13 C12        -5.8706   -2.0173   -2.1353 C.3       1 <0>         0.2860
     14 N1         -5.4170   -1.7076   -0.7724 N.4       1 <0>        -0.5221
     15 C13        -4.1683   -0.9406   -0.8038 C.3       1 <0>        -0.0046
     16 N2         -7.0762   -2.8702   -2.0164 N.pl3     1 <0>        -0.7672
     17 C14        -6.8847   -4.1014   -1.4015 C.2       1 <0>         0.5608
     18 N3         -5.7202   -4.7682   -1.6347 N.2       1 <0>        -0.6882
     19 C15        -4.7387   -4.2282   -2.2897 C.2       1 <0>         0.4411
     20 O1         -3.6075   -4.9360   -2.4582 O.3       1 <0>        -0.6470
     21 N4         -7.7998   -4.6073   -0.6178 N.2       1 <0>        -0.7777
     22 C16         3.6569    2.1603   -0.0218 C.2       1 <0>         0.5489
     23 O2          3.6435    3.3757   -0.0155 O.2       1 <0>        -0.5406
     24 N5          4.8314    1.4994   -0.0366 N.am      1 <0>        -0.6901
     25 C17         6.0919    2.2459   -0.0451 C.3       1 <0>         0.0760
     26 C18         7.2027    1.3778    0.5494 C.3       1 <0>        -0.1002
     27 C19         6.9032    1.1060    2.0250 C.3       1 <0>        -0.1141
     28 C20         7.9973    0.2510    2.6105 C.2       1 <0>         0.4719
     29 O3          8.9218   -0.1046    1.9186 O.2       1 <0>        -0.5102
     30 O4          7.9448   -0.1156    3.9007 O.3       1 <0>        -0.5129
     31 C21         6.4472    2.6155   -1.4622 C.2       1 <0>         0.4933
     32 O5          7.0818    3.6322   -1.6861 O.co2     1 <0>        -0.6903
     33 O6          6.1002    1.8979   -2.3847 O.co2     1 <0>        -0.6870
     34 H2         -0.9598    1.9054    0.0260 H         1 <0>         0.1231
     35 H3          1.1508    3.1682    0.0077 H         1 <0>         0.1352
     36 H4          3.3358   -0.5219   -0.0330 H         1 <0>         0.1276
     37 H5          1.2138   -1.7656   -0.0191 H         1 <0>         0.1272
     38 H6         -1.1489   -1.7256    0.5176 H         1 <0>         0.0787
     39 H7         -2.0557   -0.1941    0.5345 H         1 <0>         0.0690
     40 H8         -1.8929   -0.0704   -1.9367 H         1 <0>         0.0754
     41 H9         -0.9861   -1.6019   -1.9536 H         1 <0>         0.0881
     42 H10        -3.5130   -1.2476   -3.4529 H         1 <0>         0.0751
     43 H11        -2.7126   -2.8274   -3.2834 H         1 <0>         0.1078
     44 H12        -5.1390   -2.9369   -3.9032 H         1 <0>         0.1198
     45 H13        -6.0875   -1.1017   -2.6855 H         1 <0>         0.1558
     46 H14        -6.1269   -1.1683   -0.2998 H         1 <0>         0.4196
     47 H15        -3.8859   -0.6577    0.2103 H         1 <0>         0.1312
     48 H16        -4.3099   -0.0439   -1.4071 H         1 <0>         0.1302
     49 H17        -7.9434   -2.5871   -2.3463 H         1 <0>         0.4157
     50 H18        -7.6540   -5.4678   -0.1944 H         1 <0>         0.3493
     51 H19         4.8421    0.5294   -0.0416 H         1 <0>         0.3916
     52 H20         5.9814    3.1523    0.5501 H         1 <0>         0.0878
     53 H21         7.2537    0.4325    0.0090 H         1 <0>         0.0762
     54 H22         8.1565    1.8981    0.4621 H         1 <0>         0.0885
     55 H23         6.8522    2.0513    2.5654 H         1 <0>         0.1064
     56 H24         5.9494    0.5857    2.1123 H         1 <0>         0.1019
     57 H25         8.6900   -0.6625    4.1848 H         1 <0>         0.4025
     58 H26        -5.2635   -2.5684   -0.2689 H         1 <0>         0.4260
@<TRIPOS>BOND
     1    1    6 ar
     2    1    2 ar
     3    1   34 1
     4    2    3 ar
     5    2   35 1
     6    3    4 ar
     7    3   22 1
     8    4    5 ar
     9    4   36 1
    10    5    6 ar
    11    5   37 1
    12    6    7 1
    13    7    8 1
    14    7   38 1
    15    7   39 1
    16    8    9 1
    17    8   40 1
    18    8   41 1
    19    9   10 1
    20    9   15 1
    21    9   11 1
    22   11   42 1
    23   11   43 1
    24   11   12 1
    25   12   19 1
    26   12   13 1
    27   12   44 1
    28   13   14 1
    29   13   16 1
    30   13   45 1
    31   14   15 1
    32   14   46 1
    33   14   58 1
    34   15   47 1
    35   15   48 1
    36   16   49 1
    37   16   17 1
    38   17   21 2
    39   17   18 1
    40   18   19 2
    41   19   20 1
    42   21   50 1
    43   22   23 2
    44   22   24 am
    45   24   25 1
    46   24   51 1
    47   25   26 1
    48   25   31 1
    49   25   52 1
    50   26   27 1
    51   26   53 1
    52   26   54 1
    53   27   28 1
    54   27   55 1
    55   27   56 1
    56   28   29 2
    57   28   30 1
    58   30   57 1
    59   31   32 2
    60   31   33 1
@<TRIPOS>MOLECULE
CHEMBL378704__3
   58    60     0     0     0
SMALL
USER_CHARGES

@<TRIPOS>ATOM
      1 C1         -0.0167    1.3794    0.0096 C.ar      1 <0>        -0.1280
      2 C2          1.1667    2.0884    0.0021 C.ar      1 <0>        -0.0648
      3 C3          2.3848    1.4070   -0.0132 C.ar      1 <0>        -0.0987
      4 C4          2.3966    0.0113   -0.0208 C.ar      1 <0>        -0.0809
      5 C5          1.2061   -0.6856   -0.0132 C.ar      1 <0>        -0.1195
      6 C6          0.0021   -0.0041    0.0020 C.ar      1 <0>        -0.0935
      7 C7         -1.2946   -0.7719    0.0103 C.3       1 <0>        -0.0773
      8 C8         -1.7472   -1.0241   -1.4293 C.3       1 <0>        -0.1088
      9 C9         -3.0637   -1.8037   -1.4209 C.3       1 <0>        -0.1121
     10 H1         -2.9439   -2.7168   -0.8379 H         1 <0>         0.1002
     11 C10        -3.4589   -2.1593   -2.8565 C.3       1 <0>        -0.1148
     12 C11        -4.8140   -2.8552   -2.8627 C.3       1 <0>        -0.1852
     13 C12        -5.8670   -2.0052   -2.1445 C.3       1 <0>         0.2849
     14 N1         -5.4195   -1.7031   -0.7781 N.4       1 <0>        -0.5259
     15 C13        -4.1675   -0.9408   -0.8027 C.3       1 <0>        -0.0090
     16 N2         -7.0860   -2.8357   -2.0452 N.pl3     1 <0>        -0.7650
     17 C14        -6.9483   -4.0897   -1.5192 C.2       1 <0>         0.6794
     18 N3         -5.7906   -4.7265   -1.5937 N.2       1 <0>        -0.6636
     19 C15        -4.7306   -4.2020   -2.1988 C.2       1 <0>         0.5010
     20 O1         -3.6825   -4.8170   -2.2161 O.2       1 <0>        -0.4425
     21 N4         -8.0112   -4.6887   -0.9130 N.pl3     1 <0>        -0.7932
     22 C16         3.6569    2.1603   -0.0218 C.2       1 <0>         0.5377
     23 O2          3.6435    3.3757   -0.0155 O.2       1 <0>        -0.5502
     24 N5          4.8314    1.4994   -0.0366 N.am      1 <0>        -0.6712
     25 C17         6.0919    2.2459   -0.0451 C.3       1 <0>         0.0727
     26 C18         7.2027    1.3778    0.5494 C.3       1 <0>        -0.0836
     27 C19         6.9032    1.1060    2.0250 C.3       1 <0>        -0.1768
     28 C20         7.9973    0.2510    2.6105 C.2       1 <0>         0.4902
     29 O3          8.9302   -0.1078    1.9123 O.co2     1 <0>        -0.6956
     30 O4          7.9496   -0.0820    3.7824 O.co2     1 <0>        -0.7186
     31 C21         6.4472    2.6155   -1.4622 C.2       1 <0>         0.4983
     32 O5          7.0818    3.6322   -1.6861 O.co2     1 <0>        -0.6969
     33 O6          6.1002    1.8979   -2.3847 O.co2     1 <0>        -0.6999
     34 H2         -0.9598    1.9054    0.0260 H         1 <0>         0.1187
     35 H3          1.1508    3.1682    0.0077 H         1 <0>         0.1357
     36 H4          3.3358   -0.5219   -0.0330 H         1 <0>         0.1330
     37 H5          1.2138   -1.7656   -0.0191 H         1 <0>         0.1247
     38 H6         -1.1489   -1.7256    0.5176 H         1 <0>         0.0768
     39 H7         -2.0557   -0.1941    0.5345 H         1 <0>         0.0659
     40 H8         -1.8929   -0.0704   -1.9367 H         1 <0>         0.0808
     41 H9         -0.9861   -1.6019   -1.9536 H         1 <0>         0.0933
     42 H10        -3.5168   -1.2484   -3.4524 H         1 <0>         0.0957
     43 H11        -2.7085   -2.8238   -3.2848 H         1 <0>         0.1148
     44 H12        -5.1346   -2.9917   -3.8955 H         1 <0>         0.1469
     45 H13        -6.0606   -1.0858   -2.6971 H         1 <0>         0.1848
     46 H14        -6.1295   -1.1633   -0.3063 H         1 <0>         0.4293
     47 H15        -3.8871   -0.6640    0.2136 H         1 <0>         0.1466
     48 H16        -4.3040   -0.0403   -1.4016 H         1 <0>         0.1420
     49 H17        -7.9483   -2.5042   -2.3410 H         1 <0>         0.4313
     50 H18        -8.8614   -4.2253   -0.8560 H         1 <0>         0.4200
     51 H19        -7.9177   -5.5785   -0.5384 H         1 <0>         0.4385
     52 H20         4.8421    0.5294   -0.0416 H         1 <0>         0.3913
     53 H21         5.9814    3.1523    0.5501 H         1 <0>         0.0793
     54 H22         7.2537    0.4325    0.0090 H         1 <0>         0.0608
     55 H23         8.1565    1.8981    0.4621 H         1 <0>         0.0749
     56 H24         6.8522    2.0513    2.5654 H         1 <0>         0.0531
     57 H25         5.9494    0.5857    2.1123 H         1 <0>         0.0489
     58 H26        -5.2723   -2.5663   -0.2768 H         1 <0>         0.4234
@<TRIPOS>BOND
     1    1    6 ar
     2    1    2 ar
     3    1   34 1
     4    2    3 ar
     5    2   35 1
     6    3    4 ar
     7    3   22 1
     8    4    5 ar
     9    4   36 1
    10    5    6 ar
    11    5   37 1
    12    6    7 1
    13    7    8 1
    14    7   38 1
    15    7   39 1
    16    8    9 1
    17    8   40 1
    18    8   41 1
    19    9   10 1
    20    9   15 1
    21    9   11 1
    22   11   12 1
    23   11   42 1
    24   11   43 1
    25   12   19 1
    26   12   13 1
    27   12   44 1
    28   13   14 1
    29   13   16 1
    30   13   45 1
    31   14   15 1
    32   14   46 1
    33   14   58 1
    34   15   47 1
    35   15   48 1
    36   16   17 1
    37   16   49 1
    38   17   18 2
    39   17   21 1
    40   18   19 1
    41   19   20 2
    42   21   50 1
    43   21   51 1
    44   22   23 2
    45   22   24 am
    46   24   25 1
    47   24   52 1
    48   25   26 1
    49   25   31 1
    50   25   53 1
    51   26   27 1
    52   26   54 1
    53   26   55 1
    54   27   28 1
    55   27   56 1
    56   27   57 1
    57   28   29 2
    58   28   30 1
    59   31   32 2
    60   31   33 1
@<TRIPOS>MOLECULE
CHEMBL378704__4
   58    60     0     0     0
SMALL
USER_CHARGES

@<TRIPOS>ATOM
      1 C1         -0.0167    1.3794    0.0096 C.ar      1 <0>        -0.1296
      2 C2          1.1667    2.0884    0.0021 C.ar      1 <0>        -0.0603
      3 C3          2.3848    1.4070   -0.0132 C.ar      1 <0>        -0.1106
      4 C4          2.3966    0.0113   -0.0208 C.ar      1 <0>        -0.0813
      5 C5          1.2061   -0.6856   -0.0132 C.ar      1 <0>        -0.1197
      6 C6          0.0021   -0.0041    0.0020 C.ar      1 <0>        -0.0805
      7 C7         -1.2946   -0.7719    0.0103 C.3       1 <0>        -0.0832
      8 C8         -1.7472   -1.0241   -1.4293 C.3       1 <0>        -0.1284
      9 C9         -3.0637   -1.8037   -1.4209 C.3       1 <0>        -0.1112
     10 H1         -2.9397   -2.7157   -0.8371 H         1 <0>         0.1220
     11 C10        -3.4474   -2.1698   -2.8615 C.3       1 <0>        -0.1030
     12 C11        -3.7124   -0.8741   -3.6221 C.3       1 <0>        -0.1522
     13 C12        -4.8419   -0.1163   -2.9145 C.3       1 <0>         0.2857
     14 N1         -4.3865    0.2730   -1.5811 N.4       1 <0>        -0.5089
     15 C13        -4.1578   -0.9434   -0.7902 C.3       1 <0>        -0.0005
     16 N2         -5.1838    1.0391   -3.7532 N.pl3     1 <0>        -0.7823
     17 C14        -5.5191    0.7363   -5.0716 C.2       1 <0>         0.5974
     18 N3         -4.9073   -0.3177   -5.6784 N.2       1 <0>        -0.6842
     19 C15        -4.0808   -1.1042   -5.0539 C.2       1 <0>         0.4606
     20 O1         -3.5445   -2.1482   -5.7106 O.3       1 <0>        -0.6558
     21 N4         -6.4051    1.4508   -5.7135 N.2       1 <0>        -0.7862
     22 C16         3.6569    2.1603   -0.0218 C.2       1 <0>         0.5520
     23 O2          3.6435    3.3757   -0.0155 O.2       1 <0>        -0.5409
     24 N5          4.8314    1.4994   -0.0366 N.am      1 <0>        -0.6883
     25 C17         6.0919    2.2459   -0.0451 C.3       1 <0>         0.0746
     26 C18         7.1909    1.3839   -0.6698 C.3       1 <0>        -0.0987
     27 C19         6.8626    1.1271   -2.1419 C.3       1 <0>        -0.1147
     28 C20         7.9450    0.2781   -2.7573 C.2       1 <0>         0.4720
     29 O3          8.8828   -0.0843   -2.0871 O.2       1 <0>        -0.5107
     30 O4          7.8673   -0.0754   -4.0498 O.3       1 <0>        -0.5121
     31 C21         6.4748    2.6012    1.3685 C.2       1 <0>         0.4930
     32 O5          5.8674    2.1124    2.3058 O.co2     1 <0>        -0.6852
     33 O6          7.3921    3.3775    1.5748 O.co2     1 <0>        -0.6917
     34 H2         -0.9598    1.9054    0.0260 H         1 <0>         0.1192
     35 H3          1.1508    3.1682    0.0077 H         1 <0>         0.1362
     36 H4          3.3358   -0.5219   -0.0330 H         1 <0>         0.1283
     37 H5          1.2138   -1.7656   -0.0191 H         1 <0>         0.1271
     38 H6         -1.1489   -1.7256    0.5176 H         1 <0>         0.0845
     39 H7         -2.0557   -0.1941    0.5345 H         1 <0>         0.0671
     40 H8         -1.8929   -0.0704   -1.9367 H         1 <0>         0.0602
     41 H9         -0.9861   -1.6019   -1.9536 H         1 <0>         0.0959
     42 H10        -2.6294   -2.7137   -3.3339 H         1 <0>         0.1060
     43 H11        -4.3463   -2.7864   -2.8580 H         1 <0>         0.0805
     44 H12        -2.8156   -0.2556   -3.5852 H         1 <0>         0.1019
     45 H13        -5.7129   -0.7655   -2.8247 H         1 <0>         0.1273
     46 H14        -3.5264    0.7952   -1.6562 H         1 <0>         0.4255
     47 H15        -5.0823   -1.5185   -0.7394 H         1 <0>         0.1329
     48 H16        -3.8557   -0.6605    0.2182 H         1 <0>         0.1365
     49 H17        -5.1772    1.9479   -3.4140 H         1 <0>         0.4032
     50 H18        -6.6319    1.2323   -6.6310 H         1 <0>         0.3486
     51 H19         4.8421    0.5294   -0.0416 H         1 <0>         0.3899
     52 H20         5.9699    3.1583   -0.6287 H         1 <0>         0.0887
     53 H21         8.1462    1.9034   -0.5958 H         1 <0>         0.0931
     54 H22         7.2523    0.4333   -0.1400 H         1 <0>         0.0724
     55 H23         5.9072    0.6076   -2.2159 H         1 <0>         0.1011
     56 H24         6.8012    2.0777   -2.6717 H         1 <0>         0.1066
     57 H25         8.6068   -0.6193   -4.3539 H         1 <0>         0.4028
     58 H26        -5.0915    0.8403   -1.1348 H         1 <0>         0.4272
@<TRIPOS>BOND
     1    1    6 ar
     2    1    2 ar
     3    1   34 1
     4    2    3 ar
     5    2   35 1
     6    3    4 ar
     7    3   22 1
     8    4    5 ar
     9    4   36 1
    10    5    6 ar
    11    5   37 1
    12    6    7 1
    13    7    8 1
    14    7   38 1
    15    7   39 1
    16    8    9 1
    17    8   40 1
    18    8   41 1
    19    9   10 1
    20    9   15 1
    21    9   11 1
    22   11   42 1
    23   11   43 1
    24   11   12 1
    25   12   19 1
    26   12   13 1
    27   12   44 1
    28   13   14 1
    29   13   16 1
    30   13   45 1
    31   14   15 1
    32   14   46 1
    33   14   58 1
    34   15   47 1
    35   15   48 1
    36   16   49 1
    37   16   17 1
    38   17   21 2
    39   17   18 1
    40   18   19 2
    41   19   20 1
    42   21   50 1
    43   22   23 2
    44   22   24 am
    45   24   25 1
    46   24   51 1
    47   25   26 1
    48   25   31 1
    49   25   52 1
    50   26   27 1
    51   26   53 1
    52   26   54 1
    53   27   28 1
    54   27   55 1
    55   27   56 1
    56   28   29 2
    57   28   30 1
    58   30   57 1
    59   31   32 2
    60   31   33 1
@<TRIPOS>MOLECULE
CHEMBL378704__5
   58    60     0     0     0
SMALL
USER_CHARGES

@<TRIPOS>ATOM
      1 C1         -0.0167    1.3794    0.0096 C.ar      1 <0>        -0.1335
      2 C2          1.1667    2.0884    0.0021 C.ar      1 <0>        -0.0648
      3 C3          2.3848    1.4070   -0.0132 C.ar      1 <0>        -0.0939
      4 C4          2.3966    0.0113   -0.0208 C.ar      1 <0>        -0.0789
      5 C5          1.2061   -0.6856   -0.0132 C.ar      1 <0>        -0.1169
      6 C6          0.0021   -0.0041    0.0020 C.ar      1 <0>        -0.0982
      7 C7         -1.2946   -0.7719    0.0103 C.3       1 <0>        -0.0781
      8 C8         -1.7472   -1.0241   -1.4293 C.3       1 <0>        -0.1315
      9 C9         -3.0637   -1.8037   -1.4209 C.3       1 <0>        -0.1123
     10 H1         -2.9400   -2.7158   -0.8372 H         1 <0>         0.1334
     11 C10        -3.4481   -2.1690   -2.8609 C.3       1 <0>        -0.1089
     12 C11        -3.7079   -0.8737   -3.6263 C.3       1 <0>        -0.1953
     13 C12        -4.8375   -0.1113   -2.9182 C.3       1 <0>         0.2833
     14 N1         -4.3814    0.2735   -1.5829 N.4       1 <0>        -0.5095
     15 C13        -4.1584   -0.9432   -0.7910 C.3       1 <0>        -0.0036
     16 N2         -5.1638    1.0522   -3.7501 N.pl3     1 <0>        -0.7766
     17 C14        -5.4189    0.8078   -5.0751 C.2       1 <0>         0.7113
     18 N3         -4.9245   -0.2666   -5.6691 N.2       1 <0>        -0.6625
     19 C15        -4.1246   -1.1294   -5.0467 C.2       1 <0>         0.5314
     20 O1         -3.7321   -2.1229   -5.6266 O.2       1 <0>        -0.4541
     21 N4         -6.1885    1.6783   -5.7861 N.pl3     1 <0>        -0.7952
     22 C16         3.6569    2.1603   -0.0218 C.2       1 <0>         0.5409
     23 O2          3.6435    3.3757   -0.0155 O.2       1 <0>        -0.5522
     24 N5          4.8314    1.4994   -0.0366 N.am      1 <0>        -0.6688
     25 C17         6.0919    2.2459   -0.0451 C.3       1 <0>         0.0713
     26 C18         7.1909    1.3839   -0.6698 C.3       1 <0>        -0.0827
     27 C19         6.8626    1.1271   -2.1419 C.3       1 <0>        -0.1766
     28 C20         7.9450    0.2781   -2.7573 C.2       1 <0>         0.4898
     29 O3          8.8913   -0.0876   -2.0810 O.co2     1 <0>        -0.6944
     30 O4          7.8745   -0.0430   -3.9313 O.co2     1 <0>        -0.7187
     31 C21         6.4748    2.6012    1.3685 C.2       1 <0>         0.4970
     32 O5          5.8674    2.1124    2.3058 O.co2     1 <0>        -0.6995
     33 O6          7.3921    3.3775    1.5748 O.co2     1 <0>        -0.6950
     34 H2         -0.9598    1.9054    0.0260 H         1 <0>         0.1131
     35 H3          1.1508    3.1682    0.0077 H         1 <0>         0.1356
     36 H4          3.3358   -0.5219   -0.0330 H         1 <0>         0.1341
     37 H5          1.2138   -1.7656   -0.0191 H         1 <0>         0.1264
     38 H6         -1.1489   -1.7256    0.5176 H         1 <0>         0.0858
     39 H7         -2.0557   -0.1941    0.5345 H         1 <0>         0.0644
     40 H8         -1.8929   -0.0704   -1.9367 H         1 <0>         0.0563
     41 H9         -0.9861   -1.6019   -1.9536 H         1 <0>         0.1011
     42 H10        -2.6323   -2.7174   -3.3318 H         1 <0>         0.1150
     43 H11        -4.3499   -2.7813   -2.8570 H         1 <0>         0.0893
     44 H12        -2.8058   -0.2620   -3.6186 H         1 <0>         0.1311
     45 H13        -5.7128   -0.7552   -2.8321 H         1 <0>         0.1523
     46 H14        -3.5191    0.7922   -1.6566 H         1 <0>         0.4338
     47 H15        -5.0841   -1.5168   -0.7438 H         1 <0>         0.1386
     48 H16        -3.8585   -0.6618    0.2184 H         1 <0>         0.1491
     49 H17        -5.1970    1.9489   -3.3817 H         1 <0>         0.4192
     50 H18        -6.5533    2.4670   -5.3549 H         1 <0>         0.4184
     51 H19        -6.3717    1.5096   -6.7236 H         1 <0>         0.4383
     52 H20         4.8421    0.5294   -0.0416 H         1 <0>         0.3901
     53 H21         5.9699    3.1583   -0.6287 H         1 <0>         0.0799
     54 H22         8.1462    1.9034   -0.5958 H         1 <0>         0.0800
     55 H23         7.2523    0.4333   -0.1400 H         1 <0>         0.0576
     56 H24         5.9072    0.6076   -2.2159 H         1 <0>         0.0475
     57 H25         6.8012    2.0777   -2.6717 H         1 <0>         0.0527
     58 H26        -5.0842    0.8439   -1.1369 H         1 <0>         0.4334
@<TRIPOS>BOND
     1    1    6 ar
     2    1    2 ar
     3    1   34 1
     4    2    3 ar
     5    2   35 1
     6    3    4 ar
     7    3   22 1
     8    4    5 ar
     9    4   36 1
    10    5    6 ar
    11    5   37 1
    12    6    7 1
    13    7    8 1
    14    7   38 1
    15    7   39 1
    16    8    9 1
    17    8   40 1
    18    8   41 1
    19    9   10 1
    20    9   15 1
    21    9   11 1
    22   11   12 1
    23   11   42 1
    24   11   43 1
    25   12   19 1
    26   12   13 1
    27   12   44 1
    28   13   14 1
    29   13   16 1
    30   13   45 1
    31   14   15 1
    32   14   46 1
    33   14   58 1
    34   15   47 1
    35   15   48 1
    36   16   17 1
    37   16   49 1
    38   17   18 2
    39   17   21 1
    40   18   19 1
    41   19   20 2
    42   21   50 1
    43   21   51 1
    44   22   23 2
    45   22   24 am
    46   24   25 1
    47   24   52 1
    48   25   26 1
    49   25   31 1
    50   25   53 1
    51   26   27 1
    52   26   54 1
    53   26   55 1
    54   27   28 1
    55   27   56 1
    56   27   57 1
    57   28   29 2
    58   28   30 1
    59   31   32 2
    60   31   33 1
@<TRIPOS>MOLECULE
CHEMBL378704__6
   58    60     0     0     0
SMALL
USER_CHARGES

@<TRIPOS>ATOM
      1 C1         -0.0167    1.3794    0.0096 C.ar      1 <0>        -0.1297
      2 C2          1.1667    2.0884    0.0021 C.ar      1 <0>        -0.0601
      3 C3          2.3848    1.4070   -0.0132 C.ar      1 <0>        -0.1124
      4 C4          2.3966    0.0113   -0.0208 C.ar      1 <0>        -0.0809
      5 C5          1.2061   -0.6856   -0.0132 C.ar      1 <0>        -0.1196
      6 C6          0.0021   -0.0041    0.0020 C.ar      1 <0>        -0.0800
      7 C7         -1.2946   -0.7719    0.0103 C.3       1 <0>        -0.0822
      8 C8         -1.7472   -1.0241   -1.4293 C.3       1 <0>        -0.1301
      9 C9         -3.0637   -1.8037   -1.4209 C.3       1 <0>        -0.1107
     10 H1         -2.9397   -2.7157   -0.8371 H         1 <0>         0.1216
     11 C10        -3.4474   -2.1698   -2.8615 C.3       1 <0>        -0.1032
     12 C11        -3.7124   -0.8741   -3.6221 C.3       1 <0>        -0.1529
     13 C12        -4.8419   -0.1163   -2.9145 C.3       1 <0>         0.2860
     14 N1         -4.3865    0.2730   -1.5811 N.4       1 <0>        -0.5089
     15 C13        -4.1578   -0.9434   -0.7902 C.3       1 <0>        -0.0002
     16 N2         -5.1838    1.0391   -3.7532 N.pl3     1 <0>        -0.7822
     17 C14        -5.5191    0.7363   -5.0716 C.2       1 <0>         0.5977
     18 N3         -4.9073   -0.3177   -5.6784 N.2       1 <0>        -0.6842
     19 C15        -4.0808   -1.1042   -5.0539 C.2       1 <0>         0.4608
     20 O1         -3.5445   -2.1482   -5.7106 O.3       1 <0>        -0.6547
     21 N4         -6.4051    1.4508   -5.7135 N.2       1 <0>        -0.7868
     22 C16         3.6569    2.1603   -0.0218 C.2       1 <0>         0.5474
     23 O2          3.6435    3.3757   -0.0155 O.2       1 <0>        -0.5387
     24 N5          4.8314    1.4994   -0.0366 N.am      1 <0>        -0.6890
     25 C17         6.0919    2.2459   -0.0451 C.3       1 <0>         0.0756
     26 C18         7.2027    1.3778    0.5494 C.3       1 <0>        -0.1003
     27 C19         6.9032    1.1060    2.0250 C.3       1 <0>        -0.1137
     28 C20         7.9973    0.2510    2.6105 C.2       1 <0>         0.4716
     29 O3          8.9218   -0.1046    1.9186 O.2       1 <0>        -0.5095
     30 O4          7.9448   -0.1156    3.9007 O.3       1 <0>        -0.5132
     31 C21         6.4472    2.6155   -1.4622 C.2       1 <0>         0.4928
     32 O5          7.0818    3.6322   -1.6861 O.co2     1 <0>        -0.6892
     33 O6          6.1002    1.8979   -2.3847 O.co2     1 <0>        -0.6863
     34 H2         -0.9598    1.9054    0.0260 H         1 <0>         0.1195
     35 H3          1.1508    3.1682    0.0077 H         1 <0>         0.1364
     36 H4          3.3358   -0.5219   -0.0330 H         1 <0>         0.1290
     37 H5          1.2138   -1.7656   -0.0191 H         1 <0>         0.1275
     38 H6         -1.1489   -1.7256    0.5176 H         1 <0>         0.0841
     39 H7         -2.0557   -0.1941    0.5345 H         1 <0>         0.0667
     40 H8         -1.8929   -0.0704   -1.9367 H         1 <0>         0.0609
     41 H9         -0.9861   -1.6019   -1.9536 H         1 <0>         0.0969
     42 H10        -2.6294   -2.7137   -3.3339 H         1 <0>         0.1065
     43 H11        -4.3463   -2.7864   -2.8580 H         1 <0>         0.0805
     44 H12        -2.8156   -0.2556   -3.5852 H         1 <0>         0.1025
     45 H13        -5.7129   -0.7655   -2.8247 H         1 <0>         0.1272
     46 H14        -3.5264    0.7952   -1.6562 H         1 <0>         0.4257
     47 H15        -5.0823   -1.5185   -0.7394 H         1 <0>         0.1328
     48 H16        -3.8557   -0.6605    0.2182 H         1 <0>         0.1357
     49 H17        -5.1772    1.9479   -3.4140 H         1 <0>         0.4031
     50 H18        -6.6319    1.2323   -6.6310 H         1 <0>         0.3486
     51 H19         4.8421    0.5294   -0.0416 H         1 <0>         0.3913
     52 H20         5.9814    3.1523    0.5501 H         1 <0>         0.0882
     53 H21         7.2537    0.4325    0.0090 H         1 <0>         0.0763
     54 H22         8.1565    1.8981    0.4621 H         1 <0>         0.0890
     55 H23         6.8522    2.0513    2.5654 H         1 <0>         0.1065
     56 H24         5.9494    0.5857    2.1123 H         1 <0>         0.1013
     57 H25         8.6900   -0.6625    4.1848 H         1 <0>         0.4026
     58 H26        -5.0915    0.8403   -1.1348 H         1 <0>         0.4267
@<TRIPOS>BOND
     1    1    6 ar
     2    1    2 ar
     3    1   34 1
     4    2    3 ar
     5    2   35 1
     6    3    4 ar
     7    3   22 1
     8    4    5 ar
     9    4   36 1
    10    5    6 ar
    11    5   37 1
    12    6    7 1
    13    7    8 1
    14    7   38 1
    15    7   39 1
    16    8    9 1
    17    8   40 1
    18    8   41 1
    19    9   10 1
    20    9   15 1
    21    9   11 1
    22   11   42 1
    23   11   43 1
    24   11   12 1
    25   12   19 1
    26   12   13 1
    27   12   44 1
    28   13   14 1
    29   13   16 1
    30   13   45 1
    31   14   15 1
    32   14   46 1
    33   14   58 1
    34   15   47 1
    35   15   48 1
    36   16   49 1
    37   16   17 1
    38   17   21 2
    39   17   18 1
    40   18   19 2
    41   19   20 1
    42   21   50 1
    43   22   23 2
    44   22   24 am
    45   24   25 1
    46   24   51 1
    47   25   26 1
    48   25   31 1
    49   25   52 1
    50   26   27 1
    51   26   53 1
    52   26   54 1
    53   27   28 1
    54   27   55 1
    55   27   56 1
    56   28   29 2
    57   28   30 1
    58   30   57 1
    59   31   32 2
    60   31   33 1
@<TRIPOS>MOLECULE
CHEMBL378704__7
   58    60     0     0     0
SMALL
USER_CHARGES

@<TRIPOS>ATOM
      1 C1         -0.0167    1.3794    0.0096 C.ar      1 <0>        -0.1336
      2 C2          1.1667    2.0884    0.0021 C.ar      1 <0>        -0.0646
      3 C3          2.3848    1.4070   -0.0132 C.ar      1 <0>        -0.0957
      4 C4          2.3966    0.0113   -0.0208 C.ar      1 <0>        -0.0786
      5 C5          1.2061   -0.6856   -0.0132 C.ar      1 <0>        -0.1167
      6 C6          0.0021   -0.0041    0.0020 C.ar      1 <0>        -0.0975
      7 C7         -1.2946   -0.7719    0.0103 C.3       1 <0>        -0.0782
      8 C8         -1.7472   -1.0241   -1.4293 C.3       1 <0>        -0.1317
      9 C9         -3.0637   -1.8037   -1.4209 C.3       1 <0>        -0.1122
     10 H1         -2.9400   -2.7158   -0.8372 H         1 <0>         0.1335
     11 C10        -3.4481   -2.1690   -2.8609 C.3       1 <0>        -0.1088
     12 C11        -3.7079   -0.8737   -3.6263 C.3       1 <0>        -0.1956
     13 C12        -4.8375   -0.1113   -2.9182 C.3       1 <0>         0.2835
     14 N1         -4.3814    0.2735   -1.5829 N.4       1 <0>        -0.5095
     15 C13        -4.1584   -0.9432   -0.7910 C.3       1 <0>        -0.0037
     16 N2         -5.1638    1.0522   -3.7501 N.pl3     1 <0>        -0.7765
     17 C14        -5.4189    0.8078   -5.0751 C.2       1 <0>         0.7116
     18 N3         -4.9245   -0.2666   -5.6691 N.2       1 <0>        -0.6627
     19 C15        -4.1246   -1.1294   -5.0467 C.2       1 <0>         0.5317
     20 O1         -3.7321   -2.1229   -5.6266 O.2       1 <0>        -0.4548
     21 N4         -6.1885    1.6783   -5.7861 N.pl3     1 <0>        -0.7950
     22 C16         3.6569    2.1603   -0.0218 C.2       1 <0>         0.5363
     23 O2          3.6435    3.3757   -0.0155 O.2       1 <0>        -0.5500
     24 N5          4.8314    1.4994   -0.0366 N.am      1 <0>        -0.6694
     25 C17         6.0919    2.2459   -0.0451 C.3       1 <0>         0.0722
     26 C18         7.2027    1.3778    0.5494 C.3       1 <0>        -0.0839
     27 C19         6.9032    1.1060    2.0250 C.3       1 <0>        -0.1766
     28 C20         7.9973    0.2510    2.6105 C.2       1 <0>         0.4899
     29 O3          8.9302   -0.1078    1.9123 O.co2     1 <0>        -0.6951
     30 O4          7.9496   -0.0820    3.7824 O.co2     1 <0>        -0.7180
     31 C21         6.4472    2.6155   -1.4622 C.2       1 <0>         0.4983
     32 O5          7.0818    3.6322   -1.6861 O.co2     1 <0>        -0.6959
     33 O6          6.1002    1.8979   -2.3847 O.co2     1 <0>        -0.7000
     34 H2         -0.9598    1.9054    0.0260 H         1 <0>         0.1134
     35 H3          1.1508    3.1682    0.0077 H         1 <0>         0.1359
     36 H4          3.3358   -0.5219   -0.0330 H         1 <0>         0.1347
     37 H5          1.2138   -1.7656   -0.0191 H         1 <0>         0.1268
     38 H6         -1.1489   -1.7256    0.5176 H         1 <0>         0.0861
     39 H7         -2.0557   -0.1941    0.5345 H         1 <0>         0.0645
     40 H8         -1.8929   -0.0704   -1.9367 H         1 <0>         0.0564
     41 H9         -0.9861   -1.6019   -1.9536 H         1 <0>         0.1011
     42 H10        -2.6323   -2.7174   -3.3318 H         1 <0>         0.1148
     43 H11        -4.3499   -2.7813   -2.8570 H         1 <0>         0.0893
     44 H12        -2.8058   -0.2620   -3.6186 H         1 <0>         0.1312
     45 H13        -5.7128   -0.7552   -2.8321 H         1 <0>         0.1523
     46 H14        -3.5191    0.7922   -1.6566 H         1 <0>         0.4338
     47 H15        -5.0841   -1.5168   -0.7438 H         1 <0>         0.1387
     48 H16        -3.8585   -0.6618    0.2184 H         1 <0>         0.1491
     49 H17        -5.1970    1.9489   -3.3817 H         1 <0>         0.4193
     50 H18        -6.5533    2.4670   -5.3549 H         1 <0>         0.4185
     51 H19        -6.3717    1.5096   -6.7236 H         1 <0>         0.4383
     52 H20         4.8421    0.5294   -0.0416 H         1 <0>         0.3916
     53 H21         5.9814    3.1523    0.5501 H         1 <0>         0.0798
     54 H22         7.2537    0.4325    0.0090 H         1 <0>         0.0611
     55 H23         8.1565    1.8981    0.4621 H         1 <0>         0.0756
     56 H24         6.8522    2.0513    2.5654 H         1 <0>         0.0531
     57 H25         5.9494    0.5857    2.1123 H         1 <0>         0.0484
     58 H26        -5.0842    0.8439   -1.1369 H         1 <0>         0.4334
@<TRIPOS>BOND
     1    1    6 ar
     2    1    2 ar
     3    1   34 1
     4    2    3 ar
     5    2   35 1
     6    3    4 ar
     7    3   22 1
     8    4    5 ar
     9    4   36 1
    10    5    6 ar
    11    5   37 1
    12    6    7 1
    13    7    8 1
    14    7   38 1
    15    7   39 1
    16    8    9 1
    17    8   40 1
    18    8   41 1
    19    9   10 1
    20    9   15 1
    21    9   11 1
    22   11   12 1
    23   11   42 1
    24   11   43 1
    25   12   19 1
    26   12   13 1
    27   12   44 1
    28   13   14 1
    29   13   16 1
    30   13   45 1
    31   14   15 1
    32   14   46 1
    33   14   58 1
    34   15   47 1
    35   15   48 1
    36   16   17 1
    37   16   49 1
    38   17   18 2
    39   17   21 1
    40   18   19 1
    41   19   20 2
    42   21   50 1
    43   21   51 1
    44   22   23 2
    45   22   24 am
    46   24   25 1
    47   24   52 1
    48   25   26 1
    49   25   31 1
    50   25   53 1
    51   26   27 1
    52   26   54 1
    53   26   55 1
    54   27   28 1
    55   27   56 1
    56   27   57 1
    57   28   29 2
    58   28   30 1
    59   31   32 2
    60   31   33 1
@<TRIPOS>MOLECULE
CHEMBL378704__8
   58    60     0     0     0
SMALL
USER_CHARGES

@<TRIPOS>ATOM
      1 C1         -0.0167    1.3794    0.0096 C.ar      1 <0>        -0.1255
      2 C2          1.1667    2.0884    0.0021 C.ar      1 <0>        -0.0612
      3 C3          2.3848    1.4070   -0.0132 C.ar      1 <0>        -0.1123
      4 C4          2.3966    0.0113   -0.0208 C.ar      1 <0>        -0.0831
      5 C5          1.2061   -0.6856   -0.0132 C.ar      1 <0>        -0.1218
      6 C6          0.0021   -0.0041    0.0020 C.ar      1 <0>        -0.0782
      7 C7         -1.2946   -0.7719    0.0103 C.3       1 <0>        -0.0828
      8 C8         -1.7472   -1.0241   -1.4293 C.3       1 <0>        -0.1089
      9 C9         -3.0637   -1.8037   -1.4209 C.3       1 <0>        -0.1096
     10 H1         -2.9397   -2.7157   -0.8371 H         1 <0>         0.0955
     11 C10        -3.4474   -2.1698   -2.8615 C.3       1 <0>        -0.1046
     12 C11        -4.8090   -2.8572   -2.8260 C.3       1 <0>        -0.1483
     13 C12        -5.8247   -1.8937   -2.2009 C.3       1 <0>         0.2844
     14 N1         -5.4491   -1.6487   -0.8095 N.4       1 <0>        -0.5068
     15 C13        -4.1578   -0.9434   -0.7902 C.3       1 <0>        -0.0026
     16 N2         -7.1490   -2.5149   -2.3263 N.pl3     1 <0>        -0.7825
     17 C14        -7.5153   -2.8737   -3.6223 C.2       1 <0>         0.5969
     18 N3         -6.5476   -3.2841   -4.4874 N.2       1 <0>        -0.6842
     19 C15        -5.2837   -3.2796   -4.1806 C.2       1 <0>         0.4599
     20 O1         -4.3826   -3.6635   -5.1022 O.3       1 <0>        -0.6537
     21 N4         -8.7650   -2.8177   -3.9999 N.2       1 <0>        -0.7866
     22 C16         3.6569    2.1603   -0.0218 C.2       1 <0>         0.5526
     23 O2          3.6435    3.3757   -0.0155 O.2       1 <0>        -0.5415
     24 N5          4.8314    1.4994   -0.0366 N.am      1 <0>        -0.6890
     25 C17         6.0919    2.2459   -0.0451 C.3       1 <0>         0.0748
     26 C18         7.1909    1.3839   -0.6698 C.3       1 <0>        -0.0987
     27 C19         6.8626    1.1271   -2.1419 C.3       1 <0>        -0.1145
     28 C20         7.9450    0.2781   -2.7573 C.2       1 <0>         0.4719
     29 O3          8.8828   -0.0843   -2.0871 O.2       1 <0>        -0.5106
     30 O4          7.8673   -0.0754   -4.0498 O.3       1 <0>        -0.5124
     31 C21         6.4748    2.6012    1.3685 C.2       1 <0>         0.4928
     32 O5          5.8674    2.1124    2.3058 O.co2     1 <0>        -0.6851
     33 O6          7.3921    3.3775    1.5748 O.co2     1 <0>        -0.6922
     34 H2         -0.9598    1.9054    0.0260 H         1 <0>         0.1232
     35 H3          1.1508    3.1682    0.0077 H         1 <0>         0.1358
     36 H4          3.3358   -0.5219   -0.0330 H         1 <0>         0.1272
     37 H5          1.2138   -1.7656   -0.0191 H         1 <0>         0.1257
     38 H6         -1.1489   -1.7256    0.5176 H         1 <0>         0.0775
     39 H7         -2.0557   -0.1941    0.5345 H         1 <0>         0.0695
     40 H8         -1.8929   -0.0704   -1.9367 H         1 <0>         0.0783
     41 H9         -0.9861   -1.6019   -1.9536 H         1 <0>         0.0893
     42 H10        -3.5066   -1.2662   -3.4681 H         1 <0>         0.0811
     43 H11        -2.7028   -2.8467   -3.2805 H         1 <0>         0.1059
     44 H12        -4.7412   -3.7378   -2.1872 H         1 <0>         0.0978
     45 H13        -5.8161   -0.9521   -2.7498 H         1 <0>         0.1277
     46 H14        -6.1528   -1.0790   -0.3642 H         1 <0>         0.4273
     47 H15        -3.8885   -0.7199    0.2421 H         1 <0>         0.1369
     48 H16        -4.2472   -0.0107   -1.3473 H         1 <0>         0.1335
     49 H17        -7.7273   -2.6650   -1.5622 H         1 <0>         0.4024
     50 H18        -9.0102   -3.0695   -4.9040 H         1 <0>         0.3489
     51 H19         4.8421    0.5294   -0.0416 H         1 <0>         0.3899
     52 H20         5.9699    3.1583   -0.6287 H         1 <0>         0.0886
     53 H21         8.1462    1.9034   -0.5958 H         1 <0>         0.0929
     54 H22         7.2523    0.4333   -0.1400 H         1 <0>         0.0723
     55 H23         5.9072    0.6076   -2.2159 H         1 <0>         0.1013
     56 H24         6.8012    2.0777   -2.6717 H         1 <0>         0.1066
     57 H25         8.6068   -0.6193   -4.3539 H         1 <0>         0.4027
     58 H26        -5.3640   -2.5280   -0.3220 H         1 <0>         0.4257
@<TRIPOS>BOND
     1    1    6 ar
     2    1    2 ar
     3    1   34 1
     4    2    3 ar
     5    2   35 1
     6    3    4 ar
     7    3   22 1
     8    4    5 ar
     9    4   36 1
    10    5    6 ar
    11    5   37 1
    12    6    7 1
    13    7    8 1
    14    7   38 1
    15    7   39 1
    16    8    9 1
    17    8   40 1
    18    8   41 1
    19    9   10 1
    20    9   15 1
    21    9   11 1
    22   11   42 1
    23   11   43 1
    24   11   12 1
    25   12   19 1
    26   12   13 1
    27   12   44 1
    28   13   14 1
    29   13   16 1
    30   13   45 1
    31   14   15 1
    32   14   46 1
    33   14   58 1
    34   15   47 1
    35   15   48 1
    36   16   49 1
    37   16   17 1
    38   17   21 2
    39   17   18 1
    40   18   19 2
    41   19   20 1
    42   21   50 1
    43   22   23 2
    44   22   24 am
    45   24   25 1
    46   24   51 1
    47   25   26 1
    48   25   31 1
    49   25   52 1
    50   26   27 1
    51   26   53 1
    52   26   54 1
    53   27   28 1
    54   27   55 1
    55   27   56 1
    56   28   29 2
    57   28   30 1
    58   30   57 1
    59   31   32 2
    60   31   33 1
@<TRIPOS>MOLECULE
CHEMBL378704__9
   58    60     0     0     0
SMALL
USER_CHARGES

@<TRIPOS>ATOM
      1 C1         -0.0167    1.3794    0.0096 C.ar      1 <0>        -0.1276
      2 C2          1.1667    2.0884    0.0021 C.ar      1 <0>        -0.0648
      3 C3          2.3848    1.4070   -0.0132 C.ar      1 <0>        -0.0957
      4 C4          2.3966    0.0113   -0.0208 C.ar      1 <0>        -0.0815
      5 C5          1.2061   -0.6856   -0.0132 C.ar      1 <0>        -0.1196
      6 C6          0.0021   -0.0041    0.0020 C.ar      1 <0>        -0.0962
      7 C7         -1.2946   -0.7719    0.0103 C.3       1 <0>        -0.0760
      8 C8         -1.7472   -1.0241   -1.4293 C.3       1 <0>        -0.1131
      9 C9         -3.0637   -1.8037   -1.4209 C.3       1 <0>        -0.1082
     10 H1         -2.9400   -2.7158   -0.8372 H         1 <0>         0.1016
     11 C10        -3.4481   -2.1690   -2.8609 C.3       1 <0>        -0.1137
     12 C11        -4.8082   -2.8621   -2.8280 C.3       1 <0>        -0.1879
     13 C12        -5.8270   -1.8994   -2.2004 C.3       1 <0>         0.2808
     14 N1         -5.4471   -1.6523   -0.8097 N.4       1 <0>        -0.5063
     15 C13        -4.1584   -0.9432   -0.7910 C.3       1 <0>        -0.0076
     16 N2         -7.1465   -2.5308   -2.3116 N.pl3     1 <0>        -0.7768
     17 C14        -7.5120   -2.9747   -3.5565 C.2       1 <0>         0.7099
     18 N3         -6.5935   -3.2827   -4.4583 N.2       1 <0>        -0.6618
     19 C15        -5.2882   -3.2322   -4.2024 C.2       1 <0>         0.5287
     20 O1         -4.4859   -3.4850   -5.0798 O.2       1 <0>        -0.4498
     21 N4         -8.8323   -3.1001   -3.8678 N.pl3     1 <0>        -0.7961
     22 C16         3.6569    2.1603   -0.0218 C.2       1 <0>         0.5419
     23 O2          3.6435    3.3757   -0.0155 O.2       1 <0>        -0.5518
     24 N5          4.8314    1.4994   -0.0366 N.am      1 <0>        -0.6702
     25 C17         6.0919    2.2459   -0.0451 C.3       1 <0>         0.0715
     26 C18         7.1909    1.3839   -0.6698 C.3       1 <0>        -0.0823
     27 C19         6.8626    1.1271   -2.1419 C.3       1 <0>        -0.1769
     28 C20         7.9450    0.2781   -2.7573 C.2       1 <0>         0.4900
     29 O3          8.8913   -0.0876   -2.0810 O.co2     1 <0>        -0.6953
     30 O4          7.8745   -0.0430   -3.9313 O.co2     1 <0>        -0.7189
     31 C21         6.4748    2.6012    1.3685 C.2       1 <0>         0.4971
     32 O5          5.8674    2.1124    2.3058 O.co2     1 <0>        -0.6998
     33 O6          7.3921    3.3775    1.5748 O.co2     1 <0>        -0.6959
     34 H2         -0.9598    1.9054    0.0260 H         1 <0>         0.1185
     35 H3          1.1508    3.1682    0.0077 H         1 <0>         0.1358
     36 H4          3.3358   -0.5219   -0.0330 H         1 <0>         0.1325
     37 H5          1.2138   -1.7656   -0.0191 H         1 <0>         0.1238
     38 H6         -1.1489   -1.7256    0.5176 H         1 <0>         0.0765
     39 H7         -2.0557   -0.1941    0.5345 H         1 <0>         0.0660
     40 H8         -1.8929   -0.0704   -1.9367 H         1 <0>         0.0813
     41 H9         -0.9861   -1.6019   -1.9536 H         1 <0>         0.0947
     42 H10        -3.5105   -1.2645   -3.4660 H         1 <0>         0.0917
     43 H11        -2.7018   -2.8430   -3.2814 H         1 <0>         0.1153
     44 H12        -4.7416   -3.7603   -2.2141 H         1 <0>         0.1257
     45 H13        -5.8252   -0.9584   -2.7505 H         1 <0>         0.1530
     46 H14        -6.1517   -1.0853   -0.3624 H         1 <0>         0.4334
     47 H15        -3.8893   -0.7174    0.2408 H         1 <0>         0.1504
     48 H16        -4.2502   -0.0120   -1.3501 H         1 <0>         0.1407
     49 H17        -7.7306   -2.6297   -1.5436 H         1 <0>         0.4178
     50 H18        -9.5091   -2.8759   -3.2100 H         1 <0>         0.4179
     51 H19        -9.0957   -3.4137   -4.7471 H         1 <0>         0.4384
     52 H20         4.8421    0.5294   -0.0416 H         1 <0>         0.3898
     53 H21         5.9699    3.1583   -0.6287 H         1 <0>         0.0798
     54 H22         8.1462    1.9034   -0.5958 H         1 <0>         0.0795
     55 H23         7.2523    0.4333   -0.1400 H         1 <0>         0.0570
     56 H24         5.9072    0.6076   -2.2159 H         1 <0>         0.0481
     57 H25         6.8012    2.0777   -2.6717 H         1 <0>         0.0530
     58 H26        -5.3583   -2.5313   -0.3223 H         1 <0>         0.4318
@<TRIPOS>BOND
     1    1    6 ar
     2    1    2 ar
     3    1   34 1
     4    2    3 ar
     5    2   35 1
     6    3    4 ar
     7    3   22 1
     8    4    5 ar
     9    4   36 1
    10    5    6 ar
    11    5   37 1
    12    6    7 1
    13    7    8 1
    14    7   38 1
    15    7   39 1
    16    8    9 1
    17    8   40 1
    18    8   41 1
    19    9   10 1
    20    9   15 1
    21    9   11 1
    22   11   12 1
    23   11   42 1
    24   11   43 1
    25   12   19 1
    26   12   13 1
    27   12   44 1
    28   13   14 1
    29   13   16 1
    30   13   45 1
    31   14   15 1
    32   14   46 1
    33   14   58 1
    34   15   47 1
    35   15   48 1
    36   16   17 1
    37   16   49 1
    38   17   18 2
    39   17   21 1
    40   18   19 1
    41   19   20 2
    42   21   50 1
    43   21   51 1
    44   22   23 2
    45   22   24 am
    46   24   25 1
    47   24   52 1
    48   25   26 1
    49   25   31 1
    50   25   53 1
    51   26   27 1
    52   26   54 1
    53   26   55 1
    54   27   28 1
    55   27   56 1
    56   27   57 1
    57   28   29 2
    58   28   30 1
    59   31   32 2
    60   31   33 1
@<TRIPOS>MOLECULE
CHEMBL378704__10
   58    60     0     0     0
SMALL
USER_CHARGES

@<TRIPOS>ATOM
      1 C1         -0.0167    1.3794    0.0096 C.ar      1 <0>        -0.1255
      2 C2          1.1667    2.0884    0.0021 C.ar      1 <0>        -0.0610
      3 C3          2.3848    1.4070   -0.0132 C.ar      1 <0>        -0.1141
      4 C4          2.3966    0.0113   -0.0208 C.ar      1 <0>        -0.0827
      5 C5          1.2061   -0.6856   -0.0132 C.ar      1 <0>        -0.1217
      6 C6          0.0021   -0.0041    0.0020 C.ar      1 <0>        -0.0777
      7 C7         -1.2946   -0.7719    0.0103 C.3       1 <0>        -0.0819
      8 C8         -1.7472   -1.0241   -1.4293 C.3       1 <0>        -0.1106
      9 C9         -3.0637   -1.8037   -1.4209 C.3       1 <0>        -0.1088
     10 H1         -2.9397   -2.7157   -0.8371 H         1 <0>         0.0951
     11 C10        -3.4474   -2.1698   -2.8615 C.3       1 <0>        -0.1056
     12 C11        -4.8090   -2.8572   -2.8260 C.3       1 <0>        -0.1478
     13 C12        -5.8247   -1.8937   -2.2009 C.3       1 <0>         0.2842
     14 N1         -5.4491   -1.6487   -0.8095 N.4       1 <0>        -0.5066
     15 C13        -4.1578   -0.9434   -0.7902 C.3       1 <0>        -0.0026
     16 N2         -7.1490   -2.5149   -2.3263 N.pl3     1 <0>        -0.7825
     17 C14        -7.5153   -2.8737   -3.6223 C.2       1 <0>         0.5970
     18 N3         -6.5476   -3.2841   -4.4874 N.2       1 <0>        -0.6843
     19 C15        -5.2837   -3.2796   -4.1806 C.2       1 <0>         0.4596
     20 O1         -4.3826   -3.6635   -5.1022 O.3       1 <0>        -0.6521
     21 N4         -8.7650   -2.8177   -3.9999 N.2       1 <0>        -0.7873
     22 C16         3.6569    2.1603   -0.0218 C.2       1 <0>         0.5480
     23 O2          3.6435    3.3757   -0.0155 O.2       1 <0>        -0.5392
     24 N5          4.8314    1.4994   -0.0366 N.am      1 <0>        -0.6897
     25 C17         6.0919    2.2459   -0.0451 C.3       1 <0>         0.0757
     26 C18         7.2027    1.3778    0.5494 C.3       1 <0>        -0.1002
     27 C19         6.9032    1.1060    2.0250 C.3       1 <0>        -0.1138
     28 C20         7.9973    0.2510    2.6105 C.2       1 <0>         0.4717
     29 O3          8.9218   -0.1046    1.9186 O.2       1 <0>        -0.5098
     30 O4          7.9448   -0.1156    3.9007 O.3       1 <0>        -0.5132
     31 C21         6.4472    2.6155   -1.4622 C.2       1 <0>         0.4930
     32 O5          7.0818    3.6322   -1.6861 O.co2     1 <0>        -0.6896
     33 O6          6.1002    1.8979   -2.3847 O.co2     1 <0>        -0.6866
     34 H2         -0.9598    1.9054    0.0260 H         1 <0>         0.1235
     35 H3          1.1508    3.1682    0.0077 H         1 <0>         0.1360
     36 H4          3.3358   -0.5219   -0.0330 H         1 <0>         0.1279
     37 H5          1.2138   -1.7656   -0.0191 H         1 <0>         0.1260
     38 H6         -1.1489   -1.7256    0.5176 H         1 <0>         0.0771
     39 H7         -2.0557   -0.1941    0.5345 H         1 <0>         0.0691
     40 H8         -1.8929   -0.0704   -1.9367 H         1 <0>         0.0791
     41 H9         -0.9861   -1.6019   -1.9536 H         1 <0>         0.0904
     42 H10        -3.5066   -1.2662   -3.4681 H         1 <0>         0.0817
     43 H11        -2.7028   -2.8467   -3.2805 H         1 <0>         0.1065
     44 H12        -4.7412   -3.7378   -2.1872 H         1 <0>         0.0976
     45 H13        -5.8161   -0.9521   -2.7498 H         1 <0>         0.1279
     46 H14        -6.1528   -1.0790   -0.3642 H         1 <0>         0.4269
     47 H15        -3.8885   -0.7199    0.2421 H         1 <0>         0.1364
     48 H16        -4.2472   -0.0107   -1.3473 H         1 <0>         0.1337
     49 H17        -7.7273   -2.6650   -1.5622 H         1 <0>         0.4020
     50 H18        -9.0102   -3.0695   -4.9040 H         1 <0>         0.3489
     51 H19         4.8421    0.5294   -0.0416 H         1 <0>         0.3913
     52 H20         5.9814    3.1523    0.5501 H         1 <0>         0.0880
     53 H21         7.2537    0.4325    0.0090 H         1 <0>         0.0761
     54 H22         8.1565    1.8981    0.4621 H         1 <0>         0.0888
     55 H23         6.8522    2.0513    2.5654 H         1 <0>         0.1065
     56 H24         5.9494    0.5857    2.1123 H         1 <0>         0.1015
     57 H25         8.6900   -0.6625    4.1848 H         1 <0>         0.4025
     58 H26        -5.3640   -2.5280   -0.3220 H         1 <0>         0.4253
@<TRIPOS>BOND
     1    1    6 ar
     2    1    2 ar
     3    1   34 1
     4    2    3 ar
     5    2   35 1
     6    3    4 ar
     7    3   22 1
     8    4    5 ar
     9    4   36 1
    10    5    6 ar
    11    5   37 1
    12    6    7 1
    13    7    8 1
    14    7   38 1
    15    7   39 1
    16    8    9 1
    17    8   40 1
    18    8   41 1
    19    9   10 1
    20    9   15 1
    21    9   11 1
    22   11   42 1
    23   11   43 1
    24   11   12 1
    25   12   19 1
    26   12   13 1
    27   12   44 1
    28   13   14 1
    29   13   16 1
    30   13   45 1
    31   14   15 1
    32   14   46 1
    33   14   58 1
    34   15   47 1
    35   15   48 1
    36   16   49 1
    37   16   17 1
    38   17   21 2
    39   17   18 1
    40   18   19 2
    41   19   20 1
    42   21   50 1
    43   22   23 2
    44   22   24 am
    45   24   25 1
    46   24   51 1
    47   25   26 1
    48   25   31 1
    49   25   52 1
    50   26   27 1
    51   26   53 1
    52   26   54 1
    53   27   28 1
    54   27   55 1
    55   27   56 1
    56   28   29 2
    57   28   30 1
    58   30   57 1
    59   31   32 2
    60   31   33 1
@<TRIPOS>MOLECULE
CHEMBL378704__11
   58    60     0     0     0
SMALL
USER_CHARGES

@<TRIPOS>ATOM
      1 C1         -0.0167    1.3794    0.0096 C.ar      1 <0>        -0.1276
      2 C2          1.1667    2.0884    0.0021 C.ar      1 <0>        -0.0646
      3 C3          2.3848    1.4070   -0.0132 C.ar      1 <0>        -0.0975
      4 C4          2.3966    0.0113   -0.0208 C.ar      1 <0>        -0.0811
      5 C5          1.2061   -0.6856   -0.0132 C.ar      1 <0>        -0.1195
      6 C6          0.0021   -0.0041    0.0020 C.ar      1 <0>        -0.0956
      7 C7         -1.2946   -0.7719    0.0103 C.3       1 <0>        -0.0762
      8 C8         -1.7472   -1.0241   -1.4293 C.3       1 <0>        -0.1133
      9 C9         -3.0637   -1.8037   -1.4209 C.3       1 <0>        -0.1081
     10 H1         -2.9400   -2.7158   -0.8372 H         1 <0>         0.1017
     11 C10        -3.4481   -2.1690   -2.8609 C.3       1 <0>        -0.1137
     12 C11        -4.8082   -2.8621   -2.8280 C.3       1 <0>        -0.1879
     13 C12        -5.8270   -1.8994   -2.2004 C.3       1 <0>         0.2808
     14 N1         -5.4471   -1.6523   -0.8097 N.4       1 <0>        -0.5063
     15 C13        -4.1584   -0.9432   -0.7910 C.3       1 <0>        -0.0078
     16 N2         -7.1465   -2.5308   -2.3116 N.pl3     1 <0>        -0.7768
     17 C14        -7.5120   -2.9747   -3.5565 C.2       1 <0>         0.7100
     18 N3         -6.5935   -3.2827   -4.4583 N.2       1 <0>        -0.6619
     19 C15        -5.2882   -3.2322   -4.2024 C.2       1 <0>         0.5289
     20 O1         -4.4859   -3.4850   -5.0798 O.2       1 <0>        -0.4502
     21 N4         -8.8323   -3.1001   -3.8678 N.pl3     1 <0>        -0.7960
     22 C16         3.6569    2.1603   -0.0218 C.2       1 <0>         0.5372
     23 O2          3.6435    3.3757   -0.0155 O.2       1 <0>        -0.5496
     24 N5          4.8314    1.4994   -0.0366 N.am      1 <0>        -0.6709
     25 C17         6.0919    2.2459   -0.0451 C.3       1 <0>         0.0724
     26 C18         7.2027    1.3778    0.5494 C.3       1 <0>        -0.0836
     27 C19         6.9032    1.1060    2.0250 C.3       1 <0>        -0.1767
     28 C20         7.9973    0.2510    2.6105 C.2       1 <0>         0.4902
     29 O3          8.9302   -0.1078    1.9123 O.co2     1 <0>        -0.6954
     30 O4          7.9496   -0.0820    3.7824 O.co2     1 <0>        -0.7187
     31 C21         6.4472    2.6155   -1.4622 C.2       1 <0>         0.4982
     32 O5          7.0818    3.6322   -1.6861 O.co2     1 <0>        -0.6966
     33 O6          6.1002    1.8979   -2.3847 O.co2     1 <0>        -0.6997
     34 H2         -0.9598    1.9054    0.0260 H         1 <0>         0.1187
     35 H3          1.1508    3.1682    0.0077 H         1 <0>         0.1360
     36 H4          3.3358   -0.5219   -0.0330 H         1 <0>         0.1332
     37 H5          1.2138   -1.7656   -0.0191 H         1 <0>         0.1242
     38 H6         -1.1489   -1.7256    0.5176 H         1 <0>         0.0768
     39 H7         -2.0557   -0.1941    0.5345 H         1 <0>         0.0662
     40 H8         -1.8929   -0.0704   -1.9367 H         1 <0>         0.0815
     41 H9         -0.9861   -1.6019   -1.9536 H         1 <0>         0.0946
     42 H10        -3.5105   -1.2645   -3.4660 H         1 <0>         0.0918
     43 H11        -2.7018   -2.8430   -3.2814 H         1 <0>         0.1151
     44 H12        -4.7416   -3.7603   -2.2141 H         1 <0>         0.1257
     45 H13        -5.8252   -0.9584   -2.7505 H         1 <0>         0.1530
     46 H14        -6.1517   -1.0853   -0.3624 H         1 <0>         0.4334
     47 H15        -3.8893   -0.7174    0.2408 H         1 <0>         0.1504
     48 H16        -4.2502   -0.0120   -1.3501 H         1 <0>         0.1408
     49 H17        -7.7306   -2.6297   -1.5436 H         1 <0>         0.4178
     50 H18        -9.5091   -2.8759   -3.2100 H         1 <0>         0.4180
     51 H19        -9.0957   -3.4137   -4.7471 H         1 <0>         0.4384
     52 H20         4.8421    0.5294   -0.0416 H         1 <0>         0.3912
     53 H21         5.9814    3.1523    0.5501 H         1 <0>         0.0795
     54 H22         7.2537    0.4325    0.0090 H         1 <0>         0.0608
     55 H23         8.1565    1.8981    0.4621 H         1 <0>         0.0751
     56 H24         6.8522    2.0513    2.5654 H         1 <0>         0.0532
     57 H25         5.9494    0.5857    2.1123 H         1 <0>         0.0487
     58 H26        -5.3583   -2.5313   -0.3223 H         1 <0>         0.4318
@<TRIPOS>BOND
     1    1    6 ar
     2    1    2 ar
     3    1   34 1
     4    2    3 ar
     5    2   35 1
     6    3    4 ar
     7    3   22 1
     8    4    5 ar
     9    4   36 1
    10    5    6 ar
    11    5   37 1
    12    6    7 1
    13    7    8 1
    14    7   38 1
    15    7   39 1
    16    8    9 1
    17    8   40 1
    18    8   41 1
    19    9   10 1
    20    9   15 1
    21    9   11 1
    22   11   12 1
    23   11   42 1
    24   11   43 1
    25   12   19 1
    26   12   13 1
    27   12   44 1
    28   13   14 1
    29   13   16 1
    30   13   45 1
    31   14   15 1
    32   14   46 1
    33   14   58 1
    34   15   47 1
    35   15   48 1
    36   16   17 1
    37   16   49 1
    38   17   18 2
    39   17   21 1
    40   18   19 1
    41   19   20 2
    42   21   50 1
    43   21   51 1
    44   22   23 2
    45   22   24 am
    46   24   25 1
    47   24   52 1
    48   25   26 1
    49   25   31 1
    50   25   53 1
    51   26   27 1
    52   26   54 1
    53   26   55 1
    54   27   28 1
    55   27   56 1
    56   27   57 1
    57   28   29 2
    58   28   30 1
    59   31   32 2
    60   31   33 1
@<TRIPOS>MOLECULE
CHEMBL378704__12
   58    60     0     0     0
SMALL
USER_CHARGES

@<TRIPOS>ATOM
      1 C1         -0.0167    1.3794    0.0096 C.ar      1 <0>        -0.1254
      2 C2          1.1667    2.0884    0.0021 C.ar      1 <0>        -0.0610
      3 C3          2.3848    1.4070   -0.0132 C.ar      1 <0>        -0.1122
      4 C4          2.3966    0.0113   -0.0208 C.ar      1 <0>        -0.0831
      5 C5          1.2061   -0.6856   -0.0132 C.ar      1 <0>        -0.1218
      6 C6          0.0021   -0.0041    0.0020 C.ar      1 <0>        -0.0785
      7 C7         -1.2946   -0.7719    0.0103 C.3       1 <0>        -0.0810
      8 C8         -1.7472   -1.0241   -1.4293 C.3       1 <0>        -0.1090
      9 C9         -3.0637   -1.8037   -1.4209 C.3       1 <0>        -0.1030
     10 H1         -2.9439   -2.7168   -0.8379 H         1 <0>         0.0960
     11 C10        -3.4583   -2.1589   -2.8549 C.3       1 <0>        -0.1076
     12 C11        -4.8005   -2.9001   -2.8565 C.3       1 <0>        -0.1519
     13 C12        -5.8481   -2.0822   -2.1027 C.3       1 <0>         0.2770
     14 N1         -5.4113   -1.7176   -0.7641 N.4       1 <0>        -0.5011
     15 C13        -4.1678   -0.9406   -0.8025 C.3       1 <0>        -0.0115
     16 N2         -6.1739   -0.8976   -2.9088 N.pl3     1 <0>        -0.8264
     17 C14        -6.5978   -1.1544   -4.2098 C.2       1 <0>         0.6115
     18 N3         -6.0518   -2.2171   -4.8626 N.2       1 <0>        -0.6277
     19 C15        -5.2431   -3.0518   -4.2925 C.2       1 <0>         0.4627
     20 O1         -4.7792   -4.0932   -5.0060 O.3       1 <0>        -0.6539
     21 N4         -7.4936   -0.3982   -4.7871 N.2       1 <0>        -0.7546
     22 C16         3.6569    2.1603   -0.0218 C.2       1 <0>         0.5527
     23 O2          3.6435    3.3757   -0.0155 O.2       1 <0>        -0.5413
     24 N5          4.8314    1.4994   -0.0366 N.am      1 <0>        -0.6889
     25 C17         6.0919    2.2459   -0.0451 C.3       1 <0>         0.0748
     26 C18         7.1909    1.3839   -0.6698 C.3       1 <0>        -0.0987
     27 C19         6.8626    1.1271   -2.1419 C.3       1 <0>        -0.1146
     28 C20         7.9450    0.2781   -2.7573 C.2       1 <0>         0.4719
     29 O3          8.8828   -0.0843   -2.0871 O.2       1 <0>        -0.5107
     30 O4          7.8673   -0.0754   -4.0498 O.3       1 <0>        -0.5123
     31 C21         6.4748    2.6012    1.3685 C.2       1 <0>         0.4930
     32 O5          5.8674    2.1124    2.3058 O.co2     1 <0>        -0.6852
     33 O6          7.3921    3.3775    1.5748 O.co2     1 <0>        -0.6921
     34 H2         -0.9598    1.9054    0.0260 H         1 <0>         0.1227
     35 H3          1.1508    3.1682    0.0077 H         1 <0>         0.1359
     36 H4          3.3358   -0.5219   -0.0330 H         1 <0>         0.1275
     37 H5          1.2138   -1.7656   -0.0191 H         1 <0>         0.1256
     38 H6         -1.1489   -1.7256    0.5176 H         1 <0>         0.0775
     39 H7         -2.0557   -0.1941    0.5345 H         1 <0>         0.0688
     40 H8         -1.8929   -0.0704   -1.9367 H         1 <0>         0.0764
     41 H9         -0.9861   -1.6019   -1.9536 H         1 <0>         0.0876
     42 H10        -3.5483   -1.2454   -3.4428 H         1 <0>         0.0792
     43 H11        -2.6922   -2.7981   -3.2937 H         1 <0>         0.0961
     44 H12        -4.6833   -3.8820   -2.3980 H         1 <0>         0.1080
     45 H13        -6.7530   -2.6835   -2.0156 H         1 <0>         0.1204
     46 H14        -6.1312   -1.1679   -0.3195 H         1 <0>         0.4253
     47 H15        -3.8828   -0.6531    0.2096 H         1 <0>         0.1352
     48 H16        -4.3164   -0.0476   -1.4096 H         1 <0>         0.1276
     49 H17        -6.0988    0.0036   -2.5577 H         1 <0>         0.3901
     50 H18        -7.8735    0.3552   -4.3086 H         1 <0>         0.3231
     51 H19         4.8421    0.5294   -0.0416 H         1 <0>         0.3898
     52 H20         5.9699    3.1583   -0.6287 H         1 <0>         0.0886
     53 H21         8.1462    1.9034   -0.5958 H         1 <0>         0.0929
     54 H22         7.2523    0.4333   -0.1400 H         1 <0>         0.0723
     55 H23         5.9072    0.6076   -2.2159 H         1 <0>         0.1012
     56 H24         6.8012    2.0777   -2.6717 H         1 <0>         0.1066
     57 H25         8.6068   -0.6193   -4.3539 H         1 <0>         0.4027
     58 H26        -5.2578   -2.5572   -0.2260 H         1 <0>         0.4326
@<TRIPOS>BOND
     1    1    6 ar
     2    1    2 ar
     3    1   34 1
     4    2    3 ar
     5    2   35 1
     6    3    4 ar
     7    3   22 1
     8    4    5 ar
     9    4   36 1
    10    5    6 ar
    11    5   37 1
    12    6    7 1
    13    7    8 1
    14    7   38 1
    15    7   39 1
    16    8    9 1
    17    8   40 1
    18    8   41 1
    19    9   10 1
    20    9   15 1
    21    9   11 1
    22   11   42 1
    23   11   43 1
    24   11   12 1
    25   12   19 1
    26   12   13 1
    27   12   44 1
    28   13   14 1
    29   13   16 1
    30   13   45 1
    31   14   15 1
    32   14   46 1
    33   14   58 1
    34   15   47 1
    35   15   48 1
    36   16   49 1
    37   16   17 1
    38   17   21 2
    39   17   18 1
    40   18   19 2
    41   19   20 1
    42   21   50 1
    43   22   23 2
    44   22   24 am
    45   24   25 1
    46   24   51 1
    47   25   26 1
    48   25   31 1
    49   25   52 1
    50   26   27 1
    51   26   53 1
    52   26   54 1
    53   27   28 1
    54   27   55 1
    55   27   56 1
    56   28   29 2
    57   28   30 1
    58   30   57 1
    59   31   32 2
    60   31   33 1
@<TRIPOS>MOLECULE
CHEMBL378704__13
   58    60     0     0     0
SMALL
USER_CHARGES

@<TRIPOS>ATOM
      1 C1         -0.0167    1.3794    0.0096 C.ar      1 <0>        -0.1279
      2 C2          1.1667    2.0884    0.0021 C.ar      1 <0>        -0.0649
      3 C3          2.3848    1.4070   -0.0132 C.ar      1 <0>        -0.0954
      4 C4          2.3966    0.0113   -0.0208 C.ar      1 <0>        -0.0812
      5 C5          1.2061   -0.6856   -0.0132 C.ar      1 <0>        -0.1195
      6 C6          0.0021   -0.0041    0.0020 C.ar      1 <0>        -0.0967
      7 C7         -1.2946   -0.7719    0.0103 C.3       1 <0>        -0.0748
      8 C8         -1.7472   -1.0241   -1.4293 C.3       1 <0>        -0.1124
      9 C9         -3.0637   -1.8037   -1.4209 C.3       1 <0>        -0.1029
     10 H1         -2.9435   -2.7167   -0.8378 H         1 <0>         0.1046
     11 C10        -3.4573   -2.1599   -2.8554 C.3       1 <0>        -0.1185
     12 C11        -4.8023   -2.8949   -2.8544 C.3       1 <0>        -0.1885
     13 C12        -5.8496   -2.0508   -2.1220 C.3       1 <0>         0.2873
     14 N1         -5.4160   -1.7095   -0.7728 N.4       1 <0>        -0.5025
     15 C13        -4.1668   -0.9409   -0.8014 C.3       1 <0>        -0.0183
     16 N2         -6.0956   -0.8429   -2.9207 N.pl3     1 <0>        -0.7731
     17 C14        -6.3895   -1.0192   -4.2463 C.2       1 <0>         0.7131
     18 N3         -5.9818   -2.1089   -4.8764 N.2       1 <0>        -0.6621
     19 C15        -5.2518   -3.0486   -4.2911 C.2       1 <0>         0.5300
     20 O1         -4.9401   -4.0437   -4.9155 O.2       1 <0>        -0.4594
     21 N4         -7.1029   -0.0720   -4.9170 N.pl3     1 <0>        -0.7941
     22 C16         3.6569    2.1603   -0.0218 C.2       1 <0>         0.5418
     23 O2          3.6435    3.3757   -0.0155 O.2       1 <0>        -0.5518
     24 N5          4.8314    1.4994   -0.0366 N.am      1 <0>        -0.6699
     25 C17         6.0919    2.2459   -0.0451 C.3       1 <0>         0.0715
     26 C18         7.1909    1.3839   -0.6698 C.3       1 <0>        -0.0825
     27 C19         6.8626    1.1271   -2.1419 C.3       1 <0>        -0.1768
     28 C20         7.9450    0.2781   -2.7573 C.2       1 <0>         0.4901
     29 O3          8.8913   -0.0876   -2.0810 O.co2     1 <0>        -0.6950
     30 O4          7.8745   -0.0430   -3.9313 O.co2     1 <0>        -0.7190
     31 C21         6.4748    2.6012    1.3685 C.2       1 <0>         0.4971
     32 O5          5.8674    2.1124    2.3058 O.co2     1 <0>        -0.6997
     33 O6          7.3921    3.3775    1.5748 O.co2     1 <0>        -0.6957
     34 H2         -0.9598    1.9054    0.0260 H         1 <0>         0.1177
     35 H3          1.1508    3.1682    0.0077 H         1 <0>         0.1358
     36 H4          3.3358   -0.5219   -0.0330 H         1 <0>         0.1329
     37 H5          1.2138   -1.7656   -0.0191 H         1 <0>         0.1241
     38 H6         -1.1489   -1.7256    0.5176 H         1 <0>         0.0773
     39 H7         -2.0557   -0.1941    0.5345 H         1 <0>         0.0658
     40 H8         -1.8929   -0.0704   -1.9367 H         1 <0>         0.0780
     41 H9         -0.9861   -1.6019   -1.9536 H         1 <0>         0.0930
     42 H10        -3.5432   -1.2473   -3.4452 H         1 <0>         0.0833
     43 H11        -2.6930   -2.8027   -3.2922 H         1 <0>         0.1083
     44 H12        -4.6955   -3.8737   -2.3867 H         1 <0>         0.1387
     45 H13        -6.7794   -2.6165   -2.0618 H         1 <0>         0.1486
     46 H14        -6.1330   -1.1606   -0.3227 H         1 <0>         0.4339
     47 H15        -3.8847   -0.6620    0.2139 H         1 <0>         0.1504
     48 H16        -4.3075   -0.0422   -1.4020 H         1 <0>         0.1305
     49 H17        -6.0519    0.0420   -2.5258 H         1 <0>         0.4174
     50 H18        -7.4023    0.7269   -4.4554 H         1 <0>         0.4188
     51 H19        -7.3114   -0.1964   -5.8561 H         1 <0>         0.4389
     52 H20         4.8421    0.5294   -0.0416 H         1 <0>         0.3898
     53 H21         5.9699    3.1583   -0.6287 H         1 <0>         0.0798
     54 H22         8.1462    1.9034   -0.5958 H         1 <0>         0.0796
     55 H23         7.2523    0.4333   -0.1400 H         1 <0>         0.0572
     56 H24         5.9072    0.6076   -2.2159 H         1 <0>         0.0479
     57 H25         6.8012    2.0777   -2.6717 H         1 <0>         0.0529
     58 H26        -5.2695   -2.5580   -0.2468 H         1 <0>         0.4466
@<TRIPOS>BOND
     1    1    6 ar
     2    1    2 ar
     3    1   34 1
     4    2    3 ar
     5    2   35 1
     6    3    4 ar
     7    3   22 1
     8    4    5 ar
     9    4   36 1
    10    5    6 ar
    11    5   37 1
    12    6    7 1
    13    7    8 1
    14    7   38 1
    15    7   39 1
    16    8    9 1
    17    8   40 1
    18    8   41 1
    19    9   10 1
    20    9   15 1
    21    9   11 1
    22   11   12 1
    23   11   42 1
    24   11   43 1
    25   12   19 1
    26   12   13 1
    27   12   44 1
    28   13   14 1
    29   13   16 1
    30   13   45 1
    31   14   15 1
    32   14   46 1
    33   14   58 1
    34   15   47 1
    35   15   48 1
    36   16   17 1
    37   16   49 1
    38   17   18 2
    39   17   21 1
    40   18   19 1
    41   19   20 2
    42   21   50 1
    43   21   51 1
    44   22   23 2
    45   22   24 am
    46   24   25 1
    47   24   52 1
    48   25   26 1
    49   25   31 1
    50   25   53 1
    51   26   27 1
    52   26   54 1
    53   26   55 1
    54   27   28 1
    55   27   56 1
    56   27   57 1
    57   28   29 2
    58   28   30 1
    59   31   32 2
    60   31   33 1
@<TRIPOS>MOLECULE
CHEMBL378704__14
   58    60     0     0     0
SMALL
USER_CHARGES

@<TRIPOS>ATOM
      1 C1         -0.0167    1.3794    0.0096 C.ar      1 <0>        -0.1252
      2 C2          1.1667    2.0884    0.0021 C.ar      1 <0>        -0.0608
      3 C3          2.3848    1.4070   -0.0132 C.ar      1 <0>        -0.1141
      4 C4          2.3966    0.0113   -0.0208 C.ar      1 <0>        -0.0829
      5 C5          1.2061   -0.6856   -0.0132 C.ar      1 <0>        -0.1220
      6 C6          0.0021   -0.0041    0.0020 C.ar      1 <0>        -0.0779
      7 C7         -1.2946   -0.7719    0.0103 C.3       1 <0>        -0.0802
      8 C8         -1.7472   -1.0241   -1.4293 C.3       1 <0>        -0.1108
      9 C9         -3.0637   -1.8037   -1.4209 C.3       1 <0>        -0.1023
     10 H1         -2.9439   -2.7168   -0.8379 H         1 <0>         0.0958
     11 C10        -3.4583   -2.1589   -2.8549 C.3       1 <0>        -0.1088
     12 C11        -4.8005   -2.9001   -2.8565 C.3       1 <0>        -0.1505
     13 C12        -5.8481   -2.0822   -2.1027 C.3       1 <0>         0.2879
     14 N1         -5.4113   -1.7176   -0.7641 N.4       1 <0>        -0.5000
     15 C13        -4.1678   -0.9406   -0.8025 C.3       1 <0>        -0.0130
     16 N2         -6.1739   -0.8976   -2.9088 N.pl3     1 <0>        -0.7784
     17 C14        -6.5978   -1.1544   -4.2098 C.2       1 <0>         0.5991
     18 N3         -6.0518   -2.2171   -4.8626 N.2       1 <0>        -0.6826
     19 C15        -5.2431   -3.0518   -4.2925 C.2       1 <0>         0.4601
     20 O1         -4.7792   -4.0932   -5.0060 O.3       1 <0>        -0.6610
     21 N4         -7.4936   -0.3982   -4.7871 N.2       1 <0>        -0.7846
     22 C16         3.6569    2.1603   -0.0218 C.2       1 <0>         0.5480
     23 O2          3.6435    3.3757   -0.0155 O.2       1 <0>        -0.5390
     24 N5          4.8314    1.4994   -0.0366 N.am      1 <0>        -0.6897
     25 C17         6.0919    2.2459   -0.0451 C.3       1 <0>         0.0757
     26 C18         7.2027    1.3778    0.5494 C.3       1 <0>        -0.1002
     27 C19         6.9032    1.1060    2.0250 C.3       1 <0>        -0.1138
     28 C20         7.9973    0.2510    2.6105 C.2       1 <0>         0.4717
     29 O3          8.9218   -0.1046    1.9186 O.2       1 <0>        -0.5098
     30 O4          7.9448   -0.1156    3.9007 O.3       1 <0>        -0.5132
     31 C21         6.4472    2.6155   -1.4622 C.2       1 <0>         0.4930
     32 O5          7.0818    3.6322   -1.6861 O.co2     1 <0>        -0.6896
     33 O6          6.1002    1.8979   -2.3847 O.co2     1 <0>        -0.6867
     34 H2         -0.9598    1.9054    0.0260 H         1 <0>         0.1235
     35 H3          1.1508    3.1682    0.0077 H         1 <0>         0.1362
     36 H4          3.3358   -0.5219   -0.0330 H         1 <0>         0.1279
     37 H5          1.2138   -1.7656   -0.0191 H         1 <0>         0.1258
     38 H6         -1.1489   -1.7256    0.5176 H         1 <0>         0.0770
     39 H7         -2.0557   -0.1941    0.5345 H         1 <0>         0.0690
     40 H8         -1.8929   -0.0704   -1.9367 H         1 <0>         0.0778
     41 H9         -0.9861   -1.6019   -1.9536 H         1 <0>         0.0883
     42 H10        -3.5483   -1.2454   -3.4428 H         1 <0>         0.0806
     43 H11        -2.6922   -2.7981   -3.2937 H         1 <0>         0.0963
     44 H12        -4.6833   -3.8820   -2.3980 H         1 <0>         0.1085
     45 H13        -6.7530   -2.6835   -2.0156 H         1 <0>         0.1213
     46 H14        -6.1312   -1.1679   -0.3195 H         1 <0>         0.4274
     47 H15        -3.8828   -0.6531    0.2096 H         1 <0>         0.1362
     48 H16        -4.3164   -0.0476   -1.4096 H         1 <0>         0.1302
     49 H17        -6.0988    0.0036   -2.5577 H         1 <0>         0.4012
     50 H18        -7.7787   -0.5903   -5.6942 H         1 <0>         0.3492
     51 H19         4.8421    0.5294   -0.0416 H         1 <0>         0.3912
     52 H20         5.9814    3.1523    0.5501 H         1 <0>         0.0881
     53 H21         7.2537    0.4325    0.0090 H         1 <0>         0.0761
     54 H22         8.1565    1.8981    0.4621 H         1 <0>         0.0888
     55 H23         6.8522    2.0513    2.5654 H         1 <0>         0.1065
     56 H24         5.9494    0.5857    2.1123 H         1 <0>         0.1015
     57 H25         8.6900   -0.6625    4.1848 H         1 <0>         0.4025
     58 H26        -5.2578   -2.5572   -0.2260 H         1 <0>         0.4345
@<TRIPOS>BOND
     1    1    6 ar
     2    1    2 ar
     3    1   34 1
     4    2    3 ar
     5    2   35 1
     6    3    4 ar
     7    3   22 1
     8    4    5 ar
     9    4   36 1
    10    5    6 ar
    11    5   37 1
    12    6    7 1
    13    7    8 1
    14    7   38 1
    15    7   39 1
    16    8    9 1
    17    8   40 1
    18    8   41 1
    19    9   10 1
    20    9   15 1
    21    9   11 1
    22   11   42 1
    23   11   43 1
    24   11   12 1
    25   12   19 1
    26   12   13 1
    27   12   44 1
    28   13   14 1
    29   13   16 1
    30   13   45 1
    31   14   15 1
    32   14   46 1
    33   14   58 1
    34   15   47 1
    35   15   48 1
    36   16   49 1
    37   16   17 1
    38   17   21 2
    39   17   18 1
    40   18   19 2
    41   19   20 1
    42   21   50 1
    43   22   23 2
    44   22   24 am
    45   24   25 1
    46   24   51 1
    47   25   26 1
    48   25   31 1
    49   25   52 1
    50   26   27 1
    51   26   53 1
    52   26   54 1
    53   27   28 1
    54   27   55 1
    55   27   56 1
    56   28   29 2
    57   28   30 1
    58   30   57 1
    59   31   32 2
    60   31   33 1
@<TRIPOS>MOLECULE
CHEMBL378704__15
   58    60     0     0     0
SMALL
USER_CHARGES

@<TRIPOS>ATOM
      1 C1         -0.0167    1.3794    0.0096 C.ar      1 <0>        -0.1279
      2 C2          1.1667    2.0884    0.0021 C.ar      1 <0>        -0.0647
      3 C3          2.3848    1.4070   -0.0132 C.ar      1 <0>        -0.0972
      4 C4          2.3966    0.0113   -0.0208 C.ar      1 <0>        -0.0809
      5 C5          1.2061   -0.6856   -0.0132 C.ar      1 <0>        -0.1193
      6 C6          0.0021   -0.0041    0.0020 C.ar      1 <0>        -0.0960
      7 C7         -1.2946   -0.7719    0.0103 C.3       1 <0>        -0.0750
      8 C8         -1.7472   -1.0241   -1.4293 C.3       1 <0>        -0.1126
      9 C9         -3.0637   -1.8037   -1.4209 C.3       1 <0>        -0.1028
     10 H1         -2.9435   -2.7167   -0.8378 H         1 <0>         0.1047
     11 C10        -3.4573   -2.1599   -2.8554 C.3       1 <0>        -0.1184
     12 C11        -4.8023   -2.8949   -2.8544 C.3       1 <0>        -0.1885
     13 C12        -5.8496   -2.0508   -2.1220 C.3       1 <0>         0.2873
     14 N1         -5.4160   -1.7095   -0.7728 N.4       1 <0>        -0.5024
     15 C13        -4.1668   -0.9409   -0.8014 C.3       1 <0>        -0.0185
     16 N2         -6.0956   -0.8429   -2.9207 N.pl3     1 <0>        -0.7731
     17 C14        -6.3895   -1.0192   -4.2463 C.2       1 <0>         0.7133
     18 N3         -5.9818   -2.1089   -4.8764 N.2       1 <0>        -0.6624
     19 C15        -5.2518   -3.0486   -4.2911 C.2       1 <0>         0.5302
     20 O1         -4.9401   -4.0437   -4.9155 O.2       1 <0>        -0.4599
     21 N4         -7.1029   -0.0720   -4.9170 N.pl3     1 <0>        -0.7940
     22 C16         3.6569    2.1603   -0.0218 C.2       1 <0>         0.5371
     23 O2          3.6435    3.3757   -0.0155 O.2       1 <0>        -0.5496
     24 N5          4.8314    1.4994   -0.0366 N.am      1 <0>        -0.6706
     25 C17         6.0919    2.2459   -0.0451 C.3       1 <0>         0.0724
     26 C18         7.2027    1.3778    0.5494 C.3       1 <0>        -0.0837
     27 C19         6.9032    1.1060    2.0250 C.3       1 <0>        -0.1766
     28 C20         7.9973    0.2510    2.6105 C.2       1 <0>         0.4901
     29 O3          8.9302   -0.1078    1.9123 O.co2     1 <0>        -0.6953
     30 O4          7.9496   -0.0820    3.7824 O.co2     1 <0>        -0.7185
     31 C21         6.4472    2.6155   -1.4622 C.2       1 <0>         0.4983
     32 O5          7.0818    3.6322   -1.6861 O.co2     1 <0>        -0.6964
     33 O6          6.1002    1.8979   -2.3847 O.co2     1 <0>        -0.6999
     34 H2         -0.9598    1.9054    0.0260 H         1 <0>         0.1179
     35 H3          1.1508    3.1682    0.0077 H         1 <0>         0.1360
     36 H4          3.3358   -0.5219   -0.0330 H         1 <0>         0.1335
     37 H5          1.2138   -1.7656   -0.0191 H         1 <0>         0.1245
     38 H6         -1.1489   -1.7256    0.5176 H         1 <0>         0.0776
     39 H7         -2.0557   -0.1941    0.5345 H         1 <0>         0.0659
     40 H8         -1.8929   -0.0704   -1.9367 H         1 <0>         0.0782
     41 H9         -0.9861   -1.6019   -1.9536 H         1 <0>         0.0929
     42 H10        -3.5432   -1.2473   -3.4452 H         1 <0>         0.0834
     43 H11        -2.6930   -2.8027   -3.2922 H         1 <0>         0.1082
     44 H12        -4.6955   -3.8737   -2.3867 H         1 <0>         0.1387
     45 H13        -6.7794   -2.6165   -2.0618 H         1 <0>         0.1486
     46 H14        -6.1330   -1.1606   -0.3227 H         1 <0>         0.4340
     47 H15        -3.8847   -0.6620    0.2139 H         1 <0>         0.1505
     48 H16        -4.3075   -0.0422   -1.4020 H         1 <0>         0.1306
     49 H17        -6.0519    0.0420   -2.5258 H         1 <0>         0.4176
     50 H18        -7.4023    0.7269   -4.4554 H         1 <0>         0.4189
     51 H19        -7.3114   -0.1964   -5.8561 H         1 <0>         0.4389
     52 H20         4.8421    0.5294   -0.0416 H         1 <0>         0.3913
     53 H21         5.9814    3.1523    0.5501 H         1 <0>         0.0795
     54 H22         7.2537    0.4325    0.0090 H         1 <0>         0.0608
     55 H23         8.1565    1.8981    0.4621 H         1 <0>         0.0752
     56 H24         6.8522    2.0513    2.5654 H         1 <0>         0.0532
     57 H25         5.9494    0.5857    2.1123 H         1 <0>         0.0486
     58 H26        -5.2695   -2.5580   -0.2468 H         1 <0>         0.4467
@<TRIPOS>BOND
     1    1    6 ar
     2    1    2 ar
     3    1   34 1
     4    2    3 ar
     5    2   35 1
     6    3    4 ar
     7    3   22 1
     8    4    5 ar
     9    4   36 1
    10    5    6 ar
    11    5   37 1
    12    6    7 1
    13    7    8 1
    14    7   38 1
    15    7   39 1
    16    8    9 1
    17    8   40 1
    18    8   41 1
    19    9   10 1
    20    9   15 1
    21    9   11 1
    22   11   12 1
    23   11   42 1
    24   11   43 1
    25   12   19 1
    26   12   13 1
    27   12   44 1
    28   13   14 1
    29   13   16 1
    30   13   45 1
    31   14   15 1
    32   14   46 1
    33   14   58 1
    34   15   47 1
    35   15   48 1
    36   16   17 1
    37   16   49 1
    38   17   18 2
    39   17   21 1
    40   18   19 1
    41   19   20 2
    42   21   50 1
    43   21   51 1
    44   22   23 2
    45   22   24 am
    46   24   25 1
    47   24   52 1
    48   25   26 1
    49   25   31 1
    50   25   53 1
    51   26   27 1
    52   26   54 1
    53   26   55 1
    54   27   28 1
    55   27   56 1
    56   27   57 1
    57   28   29 2
    58   28   30 1
    59   31   32 2
    60   31   33 1
@<TRIPOS>MOLECULE
CHEMBL84045
   52    53     0     0     0
SMALL
USER_CHARGES

@<TRIPOS>ATOM
      1 C1         -0.1897    1.8442    0.0079 C.ar      1 <0>        -0.1259
      2 C2          1.0161    2.5229    0.0235 C.ar      1 <0>        -0.1054
      3 C3          2.2078    1.8312   -0.0986 C.ar      1 <0>        -0.0986
      4 C4          2.2011    0.4584   -0.2372 C.ar      1 <0>        -0.0607
      5 C5          0.9885   -0.2322   -0.2536 C.ar      1 <0>        -0.1059
      6 C6         -0.2105    0.4719   -0.1296 C.ar      1 <0>        -0.0879
      7 C7          0.9737   -1.7031   -0.4023 C.2       1 <0>         0.5431
      8 O1          2.0193   -2.3136   -0.5105 O.2       1 <0>        -0.5515
      9 N1         -0.1990   -2.3671   -0.4178 N.am      1 <0>        -0.6754
     10 C8         -0.2136   -3.8246   -0.5651 C.3       1 <0>         0.0736
     11 H1          0.6496   -4.2502   -0.0535 H         1 <0>         0.0781
     12 C9         -1.4979   -4.3863    0.0480 C.3       1 <0>        -0.0822
     13 C10        -1.4965   -4.1320    1.5567 C.3       1 <0>        -0.1774
     14 C11        -2.7614   -4.6853    2.1606 C.2       1 <0>         0.4914
     15 O2         -3.5876   -5.2323    1.4502 O.co2     1 <0>        -0.6979
     16 O3         -2.9587   -4.5859    3.3597 O.co2     1 <0>        -0.7196
     17 C12        -0.1571   -4.1823   -2.0280 C.2       1 <0>         0.4985
     18 O4          0.3713   -5.2227   -2.3812 O.co2     1 <0>        -0.7010
     19 O5         -0.6399   -3.4312   -2.8582 O.co2     1 <0>        -0.6990
     20 C13         3.5163    2.5786   -0.0806 C.3       1 <0>        -0.0677
     21 C14         4.0220    2.6869    1.3594 C.3       1 <0>        -0.0980
     22 C15         5.3504    3.4458    1.3777 C.3       1 <0>        -0.1023
     23 S1          5.9500    3.5743    3.0849 S.3       1 <0>        -0.0937
     24 C16         7.5254    4.3473    2.9264 C.2       1 <0>        -0.4280
     25 C17         7.7468    5.6183    3.4433 C.2       1 <0>         0.5293
     26 N2          8.9515    6.1871    3.3117 N.2       1 <0>        -0.6257
     27 C18         9.9358    5.5651    2.7000 C.2       1 <0>         0.6769
     28 N3          9.7720    4.3199    2.1756 N.am      1 <0>        -0.6602
     29 C19         8.5830    3.6904    2.2812 C.2       1 <0>         0.5627
     30 O6          8.4293    2.5703    1.8185 O.2       1 <0>        -0.5239
     31 N4         11.1545    6.1854    2.5877 N.pl3     1 <0>        -0.8186
     32 N5          6.7262    6.2932    4.0910 N.pl3     1 <0>        -0.8153
     33 H2         -1.1164    2.3897    0.1081 H         1 <0>         0.1242
     34 H3          1.0268    3.5975    0.1310 H         1 <0>         0.1185
     35 H4          3.1322   -0.0805   -0.3330 H         1 <0>         0.1335
     36 H5         -1.1522   -0.0567   -0.1412 H         1 <0>         0.1289
     37 H6         -1.0333   -1.8800   -0.3315 H         1 <0>         0.3913
     38 H7         -2.3605   -3.8953   -0.4024 H         1 <0>         0.0601
     39 H8         -1.5513   -5.4588   -0.1396 H         1 <0>         0.0726
     40 H9         -0.6338   -4.6230    2.0071 H         1 <0>         0.0530
     41 H10        -1.4431   -3.0596    1.7443 H         1 <0>         0.0513
     42 H11         4.2492    2.0427   -0.6837 H         1 <0>         0.0743
     43 H12         3.3695    3.5779   -0.4903 H         1 <0>         0.0698
     44 H13         3.2891    3.2229    1.9625 H         1 <0>         0.0706
     45 H14         4.1687    1.6876    1.7691 H         1 <0>         0.0779
     46 H15         6.0833    2.9099    0.7746 H         1 <0>         0.0856
     47 H16         5.2036    4.4451    0.9679 H         1 <0>         0.0717
     48 H17        11.2829    7.0730    2.9573 H         1 <0>         0.4285
     49 H18        11.8877    5.7364    2.1386 H         1 <0>         0.4168
     50 H19         5.8808    5.8483    4.2590 H         1 <0>         0.4238
     51 H20         6.8565    7.2109    4.3767 H         1 <0>         0.4047
     52 H21        10.5131    3.8820    1.7284 H         1 <0>         0.4114
@<TRIPOS>BOND
     1    1    6 ar
     2    1    2 ar
     3    1   33 1
     4    2    3 ar
     5    2   34 1
     6    3    4 ar
     7    3   20 1
     8    4    5 ar
     9    4   35 1
    10    5    6 ar
    11    5    7 1
    12    6   36 1
    13    7    8 2
    14    7    9 am
    15    9   10 1
    16    9   37 1
    17   10   11 1
    18   10   12 1
    19   10   17 1
    20   12   13 1
    21   12   38 1
    22   12   39 1
    23   13   14 1
    24   13   40 1
    25   13   41 1
    26   14   15 2
    27   14   16 1
    28   17   18 2
    29   17   19 1
    30   20   21 1
    31   20   42 1
    32   20   43 1
    33   21   22 1
    34   21   44 1
    35   21   45 1
    36   22   23 1
    37   22   46 1
    38   22   47 1
    39   23   24 1
    40   24   29 1
    41   24   25 2
    42   25   26 1
    43   25   32 1
    44   26   27 2
    45   27   28 1
    46   27   31 1
    47   28   29 am
    48   28   52 1
    49   29   30 2
    50   31   48 1
    51   31   49 1
    52   32   50 1
    53   32   51 1
@<TRIPOS>MOLECULE
CHEMBL279302
   57    59     0     0     0
SMALL
USER_CHARGES

@<TRIPOS>ATOM
      1 C1         -0.0167    1.3794    0.0096 C.ar      1 <0>        -0.1297
      2 C2          1.1667    2.0884    0.0021 C.ar      1 <0>        -0.0651
      3 C3          2.3848    1.4070   -0.0132 C.ar      1 <0>        -0.1100
      4 C4          2.3966    0.0113   -0.0208 C.ar      1 <0>        -0.0815
      5 C5          1.2061   -0.6856   -0.0132 C.ar      1 <0>        -0.1220
      6 C6          0.0021   -0.0041    0.0020 C.ar      1 <0>        -0.0773
      7 C7         -1.2946   -0.7719    0.0103 C.3       1 <0>        -0.0729
      8 C8         -1.7472   -1.0241   -1.4293 C.3       1 <0>        -0.1123
      9 C9         -3.0637   -1.8037   -1.4209 C.3       1 <0>        -0.1247
     10 C10        -3.5163   -2.0558   -2.8605 C.3       1 <0>         0.1366
     11 C11        -4.8803   -2.7624   -2.8603 C.3       1 <0>         0.1245
     12 N1         -4.7138   -4.0818   -2.2336 N.pl3     1 <0>        -0.7326
     13 C12        -3.6360   -4.8662   -2.5930 C.2       1 <0>         0.3255
     14 C13        -2.5634   -4.3139   -3.2323 C.2       1 <0>        -0.0326
     15 C14        -1.4751   -5.1383   -3.5824 C.2       1 <0>         0.5356
     16 N2         -1.5166   -6.4471   -3.2830 N.2       1 <0>        -0.6277
     17 C15        -2.5563   -6.9697   -2.6691 C.2       1 <0>         0.6527
     18 N3         -3.6266   -6.2084   -2.3134 N.pl3     1 <0>        -0.6360
     19 N4         -2.5616   -8.3107   -2.3818 N.pl3     1 <0>        -0.8272
     20 O1         -0.5019   -4.6664   -4.1540 O.2       1 <0>        -0.5191
     21 N5         -2.5511   -2.9357   -3.5391 N.pl3     1 <0>        -0.7221
     22 C16         3.6569    2.1603   -0.0218 C.2       1 <0>         0.5486
     23 O2          3.6435    3.3757   -0.0155 O.2       1 <0>        -0.5568
     24 N6          4.8314    1.4994   -0.0366 N.am      1 <0>        -0.6745
     25 C17         6.0919    2.2459   -0.0451 C.3       1 <0>         0.0725
     26 C18         7.1909    1.3839   -0.6698 C.3       1 <0>        -0.0810
     27 C19         6.8626    1.1271   -2.1419 C.3       1 <0>        -0.1779
     28 C20         7.9450    0.2781   -2.7573 C.2       1 <0>         0.4912
     29 O3          8.8913   -0.0876   -2.0810 O.co2     1 <0>        -0.6981
     30 O4          7.8745   -0.0430   -3.9313 O.co2     1 <0>        -0.7188
     31 C21         6.4748    2.6012    1.3685 C.2       1 <0>         0.4975
     32 O5          5.8674    2.1124    2.3058 O.co2     1 <0>        -0.6981
     33 O6          7.3921    3.3775    1.5748 O.co2     1 <0>        -0.7012
     34 H1         -0.9598    1.9054    0.0260 H         1 <0>         0.1201
     35 H2          1.1508    3.1682    0.0077 H         1 <0>         0.1326
     36 H3          3.3358   -0.5219   -0.0330 H         1 <0>         0.1288
     37 H4          1.2138   -1.7656   -0.0191 H         1 <0>         0.1220
     38 H5         -1.1489   -1.7256    0.5176 H         1 <0>         0.0663
     39 H6         -2.0557   -0.1941    0.5345 H         1 <0>         0.0668
     40 H7         -1.8929   -0.0704   -1.9367 H         1 <0>         0.0626
     41 H8         -0.9861   -1.6019   -1.9536 H         1 <0>         0.0715
     42 H9         -2.9179   -2.7573   -0.9136 H         1 <0>         0.0630
     43 H10        -3.8248   -1.2258   -0.8967 H         1 <0>         0.0647
     44 H11        -3.5908   -1.1086   -3.3948 H         1 <0>         0.0970
     45 H12        -5.5996   -2.1732   -2.2914 H         1 <0>         0.0918
     46 H13        -5.2319   -2.8836   -3.8849 H         1 <0>         0.0665
     47 H14        -5.3534   -4.3974   -1.5762 H         1 <0>         0.3977
     48 H15        -1.8042   -8.8631   -2.6310 H         1 <0>         0.4303
     49 H16        -3.3228   -8.7068   -1.9295 H         1 <0>         0.4076
     50 H17        -1.9202   -2.5767   -4.1826 H         1 <0>         0.4113
     51 H18         4.8421    0.5294   -0.0416 H         1 <0>         0.3903
     52 H19         5.9699    3.1583   -0.6287 H         1 <0>         0.0782
     53 H20         8.1462    1.9034   -0.5958 H         1 <0>         0.0770
     54 H21         7.2523    0.4333   -0.1400 H         1 <0>         0.0565
     55 H22         5.9072    0.6076   -2.2159 H         1 <0>         0.0509
     56 H23         6.8012    2.0777   -2.6717 H         1 <0>         0.0525
     57 H24        -4.3826   -6.6151   -1.8618 H         1 <0>         0.4084
@<TRIPOS>BOND
     1    1    6 ar
     2    1    2 ar
     3    1   34 1
     4    2    3 ar
     5    2   35 1
     6    3    4 ar
     7    3   22 1
     8    4    5 ar
     9    4   36 1
    10    5    6 ar
    11    5   37 1
    12    6    7 1
    13    7    8 1
    14    7   38 1
    15    7   39 1
    16    8    9 1
    17    8   40 1
    18    8   41 1
    19    9   10 1
    20    9   42 1
    21    9   43 1
    22   10   21 1
    23   10   11 1
    24   10   44 1
    25   11   12 1
    26   11   45 1
    27   11   46 1
    28   12   13 1
    29   12   47 1
    30   13   18 1
    31   13   14 2
    32   14   15 1
    33   14   21 1
    34   15   16 1
    35   15   20 2
    36   16   17 2
    37   17   18 1
    38   17   19 1
    39   18   57 1
    40   19   48 1
    41   19   49 1
    42   21   50 1
    43   22   23 2
    44   22   24 am
    45   24   25 1
    46   24   51 1
    47   25   26 1
    48   25   31 1
    49   25   52 1
    50   26   27 1
    51   26   53 1
    52   26   54 1
    53   27   28 1
    54   27   55 1
    55   27   56 1
    56   28   29 2
    57   28   30 1
    58   31   32 2
    59   31   33 1
@<TRIPOS>MOLECULE
CHEMBL279302__1
   57    59     0     0     0
SMALL
USER_CHARGES

@<TRIPOS>ATOM
      1 C1         -0.0167    1.3794    0.0096 C.ar      1 <0>        -0.1295
      2 C2          1.1667    2.0884    0.0021 C.ar      1 <0>        -0.0646
      3 C3          2.3848    1.4070   -0.0132 C.ar      1 <0>        -0.1106
      4 C4          2.3966    0.0113   -0.0208 C.ar      1 <0>        -0.0820
      5 C5          1.2061   -0.6856   -0.0132 C.ar      1 <0>        -0.1228
      6 C6          0.0021   -0.0041    0.0020 C.ar      1 <0>        -0.0759
      7 C7         -1.2946   -0.7719    0.0103 C.3       1 <0>        -0.0739
      8 C8         -1.7472   -1.0241   -1.4293 C.3       1 <0>        -0.1105
      9 C9         -3.0637   -1.8037   -1.4209 C.3       1 <0>        -0.1260
     10 C10        -3.5163   -2.0558   -2.8605 C.3       1 <0>         0.1431
     11 C11        -4.8814   -2.7592   -2.8596 C.3       1 <0>         0.1183
     12 N1         -4.7251   -4.0722   -2.2174 N.pl3     1 <0>        -0.7117
     13 C12        -3.6486   -4.8706   -2.5705 C.2       1 <0>         0.3927
     14 C13        -2.5599   -4.3128   -3.2261 C.2       1 <0>        -0.0826
     15 C14        -1.4808   -5.1330   -3.5717 C.2       1 <0>         0.5389
     16 N2         -1.5396   -6.4446   -3.2535 N.am      1 <0>        -0.6497
     17 C15        -2.6313   -6.9442   -2.6125 C.2       1 <0>         0.6247
     18 N3         -3.6493   -6.1779   -2.2839 N.2       1 <0>        -0.5925
     19 N4         -2.6713   -8.2798   -2.3011 N.pl3     1 <0>        -0.8293
     20 O1         -0.5069   -4.6735   -4.1488 O.2       1 <0>        -0.5424
     21 N5         -2.5507   -2.9357   -3.5385 N.pl3     1 <0>        -0.7259
     22 C16         3.6569    2.1603   -0.0218 C.2       1 <0>         0.5486
     23 O2          3.6435    3.3757   -0.0155 O.2       1 <0>        -0.5564
     24 N6          4.8314    1.4994   -0.0366 N.am      1 <0>        -0.6748
     25 C17         6.0919    2.2459   -0.0451 C.3       1 <0>         0.0725
     26 C18         7.1909    1.3839   -0.6698 C.3       1 <0>        -0.0809
     27 C19         6.8626    1.1271   -2.1419 C.3       1 <0>        -0.1778
     28 C20         7.9450    0.2781   -2.7573 C.2       1 <0>         0.4912
     29 O3          8.8913   -0.0876   -2.0810 O.co2     1 <0>        -0.6979
     30 O4          7.8745   -0.0430   -3.9313 O.co2     1 <0>        -0.7193
     31 C21         6.4748    2.6012    1.3685 C.2       1 <0>         0.4974
     32 O5          5.8674    2.1124    2.3058 O.co2     1 <0>        -0.6980
     33 O6          7.3921    3.3775    1.5748 O.co2     1 <0>        -0.7011
     34 H1         -0.9598    1.9054    0.0260 H         1 <0>         0.1207
     35 H2          1.1508    3.1682    0.0077 H         1 <0>         0.1327
     36 H3          3.3358   -0.5219   -0.0330 H         1 <0>         0.1281
     37 H4          1.2138   -1.7656   -0.0191 H         1 <0>         0.1210
     38 H5         -1.1489   -1.7256    0.5176 H         1 <0>         0.0665
     39 H6         -2.0557   -0.1941    0.5345 H         1 <0>         0.0675
     40 H7         -1.8929   -0.0704   -1.9367 H         1 <0>         0.0617
     41 H8         -0.9861   -1.6019   -1.9536 H         1 <0>         0.0697
     42 H9         -2.9179   -2.7573   -0.9136 H         1 <0>         0.0640
     43 H10        -3.8248   -1.2258   -0.8967 H         1 <0>         0.0645
     44 H11        -3.5896   -1.1085   -3.3947 H         1 <0>         0.0947
     45 H12        -5.6023   -2.1612   -2.3021 H         1 <0>         0.0902
     46 H13        -5.2274   -2.8907   -3.8849 H         1 <0>         0.0647
     47 H14        -5.3662   -4.3754   -1.5556 H         1 <0>         0.4037
     48 H15        -1.9274   -8.8555   -2.5378 H         1 <0>         0.4125
     49 H16        -3.4436   -8.6484   -1.8443 H         1 <0>         0.4243
     50 H17        -1.9227   -2.5779   -4.1854 H         1 <0>         0.4051
     51 H18         4.8421    0.5294   -0.0416 H         1 <0>         0.3900
     52 H19         5.9699    3.1583   -0.6287 H         1 <0>         0.0783
     53 H20         8.1462    1.9034   -0.5958 H         1 <0>         0.0771
     54 H21         7.2523    0.4333   -0.1400 H         1 <0>         0.0563
     55 H22         5.9072    0.6076   -2.2159 H         1 <0>         0.0506
     56 H23         6.8012    2.0777   -2.6717 H         1 <0>         0.0526
     57 H24        -0.8023   -7.0317   -3.4828 H         1 <0>         0.4121
@<TRIPOS>BOND
     1    1    6 ar
     2    1    2 ar
     3    1   34 1
     4    2    3 ar
     5    2   35 1
     6    3    4 ar
     7    3   22 1
     8    4    5 ar
     9    4   36 1
    10    5    6 ar
    11    5   37 1
    12    6    7 1
    13    7    8 1
    14    7   38 1
    15    7   39 1
    16    8    9 1
    17    8   40 1
    18    8   41 1
    19    9   10 1
    20    9   42 1
    21    9   43 1
    22   10   21 1
    23   10   11 1
    24   10   44 1
    25   11   12 1
    26   11   45 1
    27   11   46 1
    28   12   13 1
    29   12   47 1
    30   13   18 1
    31   13   14 2
    32   14   15 1
    33   14   21 1
    34   15   16 am
    35   15   20 2
    36   16   17 1
    37   16   57 1
    38   17   18 2
    39   17   19 1
    40   19   48 1
    41   19   49 1
    42   21   50 1
    43   22   23 2
    44   22   24 am
    45   24   25 1
    46   24   51 1
    47   25   26 1
    48   25   31 1
    49   25   52 1
    50   26   27 1
    51   26   53 1
    52   26   54 1
    53   27   28 1
    54   27   55 1
    55   27   56 1
    56   28   29 2
    57   28   30 1
    58   31   32 2
    59   31   33 1
@<TRIPOS>MOLECULE
CHEMBL279302__2
   57    59     0     0     0
SMALL
USER_CHARGES

@<TRIPOS>ATOM
      1 C1         -0.0167    1.3794    0.0096 C.ar      1 <0>        -0.1298
      2 C2          1.1667    2.0884    0.0021 C.ar      1 <0>        -0.0648
      3 C3          2.3848    1.4070   -0.0132 C.ar      1 <0>        -0.1118
      4 C4          2.3966    0.0113   -0.0208 C.ar      1 <0>        -0.0811
      5 C5          1.2061   -0.6856   -0.0132 C.ar      1 <0>        -0.1218
      6 C6          0.0021   -0.0041    0.0020 C.ar      1 <0>        -0.0766
      7 C7         -1.2946   -0.7719    0.0103 C.3       1 <0>        -0.0731
      8 C8         -1.7472   -1.0241   -1.4293 C.3       1 <0>        -0.1124
      9 C9         -3.0637   -1.8037   -1.4209 C.3       1 <0>        -0.1247
     10 C10        -3.5163   -2.0558   -2.8605 C.3       1 <0>         0.1365
     11 C11        -4.8803   -2.7624   -2.8603 C.3       1 <0>         0.1246
     12 N1         -4.7138   -4.0818   -2.2336 N.pl3     1 <0>        -0.7324
     13 C12        -3.6360   -4.8662   -2.5930 C.2       1 <0>         0.3259
     14 C13        -2.5634   -4.3139   -3.2323 C.2       1 <0>        -0.0330
     15 C14        -1.4751   -5.1383   -3.5824 C.2       1 <0>         0.5361
     16 N2         -1.5166   -6.4471   -3.2830 N.2       1 <0>        -0.6282
     17 C15        -2.5563   -6.9697   -2.6691 C.2       1 <0>         0.6529
     18 N3         -3.6266   -6.2084   -2.3134 N.pl3     1 <0>        -0.6358
     19 N4         -2.5616   -8.3107   -2.3818 N.pl3     1 <0>        -0.8270
     20 O1         -0.5019   -4.6664   -4.1540 O.2       1 <0>        -0.5205
     21 N5         -2.5511   -2.9357   -3.5391 N.pl3     1 <0>        -0.7220
     22 C16         3.6569    2.1603   -0.0218 C.2       1 <0>         0.5438
     23 O2          3.6435    3.3757   -0.0155 O.2       1 <0>        -0.5545
     24 N6          4.8314    1.4994   -0.0366 N.am      1 <0>        -0.6752
     25 C17         6.0919    2.2459   -0.0451 C.3       1 <0>         0.0735
     26 C18         7.2027    1.3778    0.5494 C.3       1 <0>        -0.0826
     27 C19         6.9032    1.1060    2.0250 C.3       1 <0>        -0.1771
     28 C20         7.9973    0.2510    2.6105 C.2       1 <0>         0.4913
     29 O3          8.9302   -0.1078    1.9123 O.co2     1 <0>        -0.6972
     30 O4          7.9496   -0.0820    3.7824 O.co2     1 <0>        -0.7201
     31 C21         6.4472    2.6155   -1.4622 C.2       1 <0>         0.4982
     32 O5          7.0818    3.6322   -1.6861 O.co2     1 <0>        -0.7017
     33 O6          6.1002    1.8979   -2.3847 O.co2     1 <0>        -0.6973
     34 H1         -0.9598    1.9054    0.0260 H         1 <0>         0.1204
     35 H2          1.1508    3.1682    0.0077 H         1 <0>         0.1329
     36 H3          3.3358   -0.5219   -0.0330 H         1 <0>         0.1294
     37 H4          1.2138   -1.7656   -0.0191 H         1 <0>         0.1223
     38 H5         -1.1489   -1.7256    0.5176 H         1 <0>         0.0665
     39 H6         -2.0557   -0.1941    0.5345 H         1 <0>         0.0669
     40 H7         -1.8929   -0.0704   -1.9367 H         1 <0>         0.0628
     41 H8         -0.9861   -1.6019   -1.9536 H         1 <0>         0.0714
     42 H9         -2.9179   -2.7573   -0.9136 H         1 <0>         0.0630
     43 H10        -3.8248   -1.2258   -0.8967 H         1 <0>         0.0648
     44 H11        -3.5908   -1.1086   -3.3948 H         1 <0>         0.0971
     45 H12        -5.5996   -2.1732   -2.2914 H         1 <0>         0.0920
     46 H13        -5.2319   -2.8836   -3.8849 H         1 <0>         0.0665
     47 H14        -5.3534   -4.3974   -1.5762 H         1 <0>         0.3978
     48 H15        -1.8042   -8.8631   -2.6310 H         1 <0>         0.4302
     49 H16        -3.3228   -8.7068   -1.9295 H         1 <0>         0.4078
     50 H17        -1.9202   -2.5767   -4.1826 H         1 <0>         0.4113
     51 H18         4.8421    0.5294   -0.0416 H         1 <0>         0.3918
     52 H19         5.9814    3.1523    0.5501 H         1 <0>         0.0777
     53 H20         7.2537    0.4325    0.0090 H         1 <0>         0.0605
     54 H21         8.1565    1.8981    0.4621 H         1 <0>         0.0728
     55 H22         6.8522    2.0513    2.5654 H         1 <0>         0.0525
     56 H23         5.9494    0.5857    2.1123 H         1 <0>         0.0509
     57 H24        -4.3826   -6.6151   -1.8618 H         1 <0>         0.4085
@<TRIPOS>BOND
     1    1    6 ar
     2    1    2 ar
     3    1   34 1
     4    2    3 ar
     5    2   35 1
     6    3    4 ar
     7    3   22 1
     8    4    5 ar
     9    4   36 1
    10    5    6 ar
    11    5   37 1
    12    6    7 1
    13    7    8 1
    14    7   38 1
    15    7   39 1
    16    8    9 1
    17    8   40 1
    18    8   41 1
    19    9   10 1
    20    9   42 1
    21    9   43 1
    22   10   21 1
    23   10   11 1
    24   10   44 1
    25   11   12 1
    26   11   45 1
    27   11   46 1
    28   12   13 1
    29   12   47 1
    30   13   18 1
    31   13   14 2
    32   14   15 1
    33   14   21 1
    34   15   16 1
    35   15   20 2
    36   16   17 2
    37   17   18 1
    38   17   19 1
    39   18   57 1
    40   19   48 1
    41   19   49 1
    42   21   50 1
    43   22   23 2
    44   22   24 am
    45   24   25 1
    46   24   51 1
    47   25   26 1
    48   25   31 1
    49   25   52 1
    50   26   27 1
    51   26   53 1
    52   26   54 1
    53   27   28 1
    54   27   55 1
    55   27   56 1
    56   28   29 2
    57   28   30 1
    58   31   32 2
    59   31   33 1
@<TRIPOS>MOLECULE
CHEMBL279302__3
   57    59     0     0     0
SMALL
USER_CHARGES

@<TRIPOS>ATOM
      1 C1         -0.0167    1.3794    0.0096 C.ar      1 <0>        -0.1295
      2 C2          1.1667    2.0884    0.0021 C.ar      1 <0>        -0.0644
      3 C3          2.3848    1.4070   -0.0132 C.ar      1 <0>        -0.1124
      4 C4          2.3966    0.0113   -0.0208 C.ar      1 <0>        -0.0816
      5 C5          1.2061   -0.6856   -0.0132 C.ar      1 <0>        -0.1227
      6 C6          0.0021   -0.0041    0.0020 C.ar      1 <0>        -0.0753
      7 C7         -1.2946   -0.7719    0.0103 C.3       1 <0>        -0.0740
      8 C8         -1.7472   -1.0241   -1.4293 C.3       1 <0>        -0.1106
      9 C9         -3.0637   -1.8037   -1.4209 C.3       1 <0>        -0.1259
     10 C10        -3.5163   -2.0558   -2.8605 C.3       1 <0>         0.1430
     11 C11        -4.8814   -2.7592   -2.8596 C.3       1 <0>         0.1183
     12 N1         -4.7251   -4.0722   -2.2174 N.pl3     1 <0>        -0.7116
     13 C12        -3.6486   -4.8706   -2.5705 C.2       1 <0>         0.3932
     14 C13        -2.5599   -4.3128   -3.2261 C.2       1 <0>        -0.0829
     15 C14        -1.4808   -5.1330   -3.5717 C.2       1 <0>         0.5392
     16 N2         -1.5396   -6.4446   -3.2535 N.am      1 <0>        -0.6497
     17 C15        -2.6313   -6.9442   -2.6125 C.2       1 <0>         0.6247
     18 N3         -3.6493   -6.1779   -2.2839 N.2       1 <0>        -0.5923
     19 N4         -2.6713   -8.2798   -2.3011 N.pl3     1 <0>        -0.8292
     20 O1         -0.5069   -4.6735   -4.1488 O.2       1 <0>        -0.5436
     21 N5         -2.5507   -2.9357   -3.5385 N.pl3     1 <0>        -0.7259
     22 C16         3.6569    2.1603   -0.0218 C.2       1 <0>         0.5439
     23 O2          3.6435    3.3757   -0.0155 O.2       1 <0>        -0.5541
     24 N6          4.8314    1.4994   -0.0366 N.am      1 <0>        -0.6755
     25 C17         6.0919    2.2459   -0.0451 C.3       1 <0>         0.0735
     26 C18         7.2027    1.3778    0.5494 C.3       1 <0>        -0.0824
     27 C19         6.9032    1.1060    2.0250 C.3       1 <0>        -0.1772
     28 C20         7.9973    0.2510    2.6105 C.2       1 <0>         0.4913
     29 O3          8.9302   -0.1078    1.9123 O.co2     1 <0>        -0.6974
     30 O4          7.9496   -0.0820    3.7824 O.co2     1 <0>        -0.7198
     31 C21         6.4472    2.6155   -1.4622 C.2       1 <0>         0.4983
     32 O5          7.0818    3.6322   -1.6861 O.co2     1 <0>        -0.7014
     33 O6          6.1002    1.8979   -2.3847 O.co2     1 <0>        -0.6979
     34 H1         -0.9598    1.9054    0.0260 H         1 <0>         0.1209
     35 H2          1.1508    3.1682    0.0077 H         1 <0>         0.1330
     36 H3          3.3358   -0.5219   -0.0330 H         1 <0>         0.1288
     37 H4          1.2138   -1.7656   -0.0191 H         1 <0>         0.1214
     38 H5         -1.1489   -1.7256    0.5176 H         1 <0>         0.0667
     39 H6         -2.0557   -0.1941    0.5345 H         1 <0>         0.0676
     40 H7         -1.8929   -0.0704   -1.9367 H         1 <0>         0.0619
     41 H8         -0.9861   -1.6019   -1.9536 H         1 <0>         0.0696
     42 H9         -2.9179   -2.7573   -0.9136 H         1 <0>         0.0640
     43 H10        -3.8248   -1.2258   -0.8967 H         1 <0>         0.0646
     44 H11        -3.5896   -1.1085   -3.3947 H         1 <0>         0.0949
     45 H12        -5.6023   -2.1612   -2.3021 H         1 <0>         0.0903
     46 H13        -5.2274   -2.8907   -3.8849 H         1 <0>         0.0648
     47 H14        -5.3662   -4.3754   -1.5556 H         1 <0>         0.4038
     48 H15        -1.9274   -8.8555   -2.5378 H         1 <0>         0.4125
     49 H16        -3.4436   -8.6484   -1.8443 H         1 <0>         0.4244
     50 H17        -1.9227   -2.5779   -4.1854 H         1 <0>         0.4050
     51 H18         4.8421    0.5294   -0.0416 H         1 <0>         0.3915
     52 H19         5.9814    3.1523    0.5501 H         1 <0>         0.0778
     53 H20         7.2537    0.4325    0.0090 H         1 <0>         0.0602
     54 H21         8.1565    1.8981    0.4621 H         1 <0>         0.0728
     55 H22         6.8522    2.0513    2.5654 H         1 <0>         0.0527
     56 H23         5.9494    0.5857    2.1123 H         1 <0>         0.0509
     57 H24        -0.8023   -7.0317   -3.4828 H         1 <0>         0.4119
@<TRIPOS>BOND
     1    1    6 ar
     2    1    2 ar
     3    1   34 1
     4    2    3 ar
     5    2   35 1
     6    3    4 ar
     7    3   22 1
     8    4    5 ar
     9    4   36 1
    10    5    6 ar
    11    5   37 1
    12    6    7 1
    13    7    8 1
    14    7   38 1
    15    7   39 1
    16    8    9 1
    17    8   40 1
    18    8   41 1
    19    9   10 1
    20    9   42 1
    21    9   43 1
    22   10   21 1
    23   10   11 1
    24   10   44 1
    25   11   12 1
    26   11   45 1
    27   11   46 1
    28   12   13 1
    29   12   47 1
    30   13   18 1
    31   13   14 2
    32   14   15 1
    33   14   21 1
    34   15   16 am
    35   15   20 2
    36   16   17 1
    37   16   57 1
    38   17   18 2
    39   17   19 1
    40   19   48 1
    41   19   49 1
    42   21   50 1
    43   22   23 2
    44   22   24 am
    45   24   25 1
    46   24   51 1
    47   25   26 1
    48   25   31 1
    49   25   52 1
    50   26   27 1
    51   26   53 1
    52   26   54 1
    53   27   28 1
    54   27   55 1
    55   27   56 1
    56   28   29 2
    57   28   30 1
    58   31   32 2
    59   31   33 1
@<TRIPOS>MOLECULE
CHEMBL279302__4
   57    59     0     0     0
SMALL
USER_CHARGES

@<TRIPOS>ATOM
      1 C1         -0.0167    1.3794    0.0096 C.ar      1 <0>        -0.1267
      2 C2          1.1667    2.0884    0.0021 C.ar      1 <0>        -0.0631
      3 C3          2.3848    1.4070   -0.0132 C.ar      1 <0>        -0.1100
      4 C4          2.3966    0.0113   -0.0208 C.ar      1 <0>        -0.0834
      5 C5          1.2061   -0.6856   -0.0132 C.ar      1 <0>        -0.1250
      6 C6          0.0021   -0.0041    0.0020 C.ar      1 <0>        -0.0773
      7 C7         -1.2946   -0.7719    0.0103 C.3       1 <0>        -0.0729
      8 C8         -1.7472   -1.0241   -1.4293 C.3       1 <0>        -0.1123
      9 C9         -3.0637   -1.8037   -1.4209 C.3       1 <0>        -0.1245
     10 C10        -3.5163   -2.0558   -2.8605 C.3       1 <0>         0.1360
     11 C11        -4.7917   -2.9121   -2.8619 C.3       1 <0>         0.1240
     12 N1         -5.8624   -2.1421   -2.2122 N.pl3     1 <0>        -0.7319
     13 C12        -6.0353   -0.8142   -2.5483 C.2       1 <0>         0.3263
     14 C13        -5.0415   -0.1288   -3.1861 C.2       1 <0>        -0.0334
     15 C14        -5.2443    1.2274   -3.5122 C.2       1 <0>         0.5368
     16 N2         -6.4089    1.8151   -3.1918 N.2       1 <0>        -0.6296
     17 C15        -7.3611    1.1448   -2.5795 C.2       1 <0>         0.6528
     18 N3         -7.2048   -0.1654   -2.2467 N.pl3     1 <0>        -0.6353
     19 N4         -8.5362    1.7803   -2.2696 N.pl3     1 <0>        -0.8273
     20 O1         -4.3679    1.8633   -4.0813 O.2       1 <0>        -0.5231
     21 N5         -3.8302   -0.7755   -3.5153 N.pl3     1 <0>        -0.7217
     22 C16         3.6569    2.1603   -0.0218 C.2       1 <0>         0.5483
     23 O2          3.6435    3.3757   -0.0155 O.2       1 <0>        -0.5550
     24 N6          4.8314    1.4994   -0.0366 N.am      1 <0>        -0.6750
     25 C17         6.0919    2.2459   -0.0451 C.3       1 <0>         0.0725
     26 C18         7.1909    1.3839   -0.6698 C.3       1 <0>        -0.0807
     27 C19         6.8626    1.1271   -2.1419 C.3       1 <0>        -0.1778
     28 C20         7.9450    0.2781   -2.7573 C.2       1 <0>         0.4913
     29 O3          8.8913   -0.0876   -2.0810 O.co2     1 <0>        -0.6978
     30 O4          7.8745   -0.0430   -3.9313 O.co2     1 <0>        -0.7197
     31 C21         6.4748    2.6012    1.3685 C.2       1 <0>         0.4973
     32 O5          5.8674    2.1124    2.3058 O.co2     1 <0>        -0.6982
     33 O6          7.3921    3.3775    1.5748 O.co2     1 <0>        -0.7011
     34 H1         -0.9598    1.9054    0.0260 H         1 <0>         0.1200
     35 H2          1.1508    3.1682    0.0077 H         1 <0>         0.1331
     36 H3          3.3358   -0.5219   -0.0330 H         1 <0>         0.1284
     37 H4          1.2138   -1.7656   -0.0191 H         1 <0>         0.1221
     38 H5         -1.1489   -1.7256    0.5176 H         1 <0>         0.0679
     39 H6         -2.0557   -0.1941    0.5345 H         1 <0>         0.0652
     40 H7         -1.8929   -0.0704   -1.9367 H         1 <0>         0.0701
     41 H8         -0.9861   -1.6019   -1.9536 H         1 <0>         0.0642
     42 H9         -2.9179   -2.7573   -0.9136 H         1 <0>         0.0658
     43 H10        -3.8248   -1.2258   -0.8967 H         1 <0>         0.0622
     44 H11        -2.7269   -2.5677   -3.4109 H         1 <0>         0.0984
     45 H12        -5.0769   -3.1453   -3.8878 H         1 <0>         0.0671
     46 H13        -4.6155   -3.8352   -2.3097 H         1 <0>         0.0929
     47 H14        -6.4398   -2.5617   -1.5554 H         1 <0>         0.3980
     48 H15        -8.6585    2.7141   -2.5018 H         1 <0>         0.4298
     49 H16        -9.2451    1.2959   -1.8183 H         1 <0>         0.4079
     50 H17        -3.2186   -0.3848   -4.1589 H         1 <0>         0.4111
     51 H18         4.8421    0.5294   -0.0416 H         1 <0>         0.3897
     52 H19         5.9699    3.1583   -0.6287 H         1 <0>         0.0783
     53 H20         8.1462    1.9034   -0.5958 H         1 <0>         0.0770
     54 H21         7.2523    0.4333   -0.1400 H         1 <0>         0.0562
     55 H22         5.9072    0.6076   -2.2159 H         1 <0>         0.0506
     56 H23         6.8012    2.0777   -2.6717 H         1 <0>         0.0528
     57 H24        -7.9208   -0.6403   -1.7964 H         1 <0>         0.4088
@<TRIPOS>BOND
     1    1    6 ar
     2    1    2 ar
     3    1   34 1
     4    2    3 ar
     5    2   35 1
     6    3    4 ar
     7    3   22 1
     8    4    5 ar
     9    4   36 1
    10    5    6 ar
    11    5   37 1
    12    6    7 1
    13    7    8 1
    14    7   38 1
    15    7   39 1
    16    8    9 1
    17    8   40 1
    18    8   41 1
    19    9   10 1
    20    9   42 1
    21    9   43 1
    22   10   21 1
    23   10   11 1
    24   10   44 1
    25   11   12 1
    26   11   45 1
    27   11   46 1
    28   12   13 1
    29   12   47 1
    30   13   18 1
    31   13   14 2
    32   14   15 1
    33   14   21 1
    34   15   16 1
    35   15   20 2
    36   16   17 2
    37   17   18 1
    38   17   19 1
    39   18   57 1
    40   19   48 1
    41   19   49 1
    42   21   50 1
    43   22   23 2
    44   22   24 am
    45   24   25 1
    46   24   51 1
    47   25   26 1
    48   25   31 1
    49   25   52 1
    50   26   27 1
    51   26   53 1
    52   26   54 1
    53   27   28 1
    54   27   55 1
    55   27   56 1
    56   28   29 2
    57   28   30 1
    58   31   32 2
    59   31   33 1
@<TRIPOS>MOLECULE
CHEMBL279302__5
   57    59     0     0     0
SMALL
USER_CHARGES

@<TRIPOS>ATOM
      1 C1         -0.0167    1.3794    0.0096 C.ar      1 <0>        -0.1275
      2 C2          1.1667    2.0884    0.0021 C.ar      1 <0>        -0.0637
      3 C3          2.3848    1.4070   -0.0132 C.ar      1 <0>        -0.1106
      4 C4          2.3966    0.0113   -0.0208 C.ar      1 <0>        -0.0830
      5 C5          1.2061   -0.6856   -0.0132 C.ar      1 <0>        -0.1247
      6 C6          0.0021   -0.0041    0.0020 C.ar      1 <0>        -0.0760
      7 C7         -1.2946   -0.7719    0.0103 C.3       1 <0>        -0.0739
      8 C8         -1.7472   -1.0241   -1.4293 C.3       1 <0>        -0.1106
      9 C9         -3.0637   -1.8037   -1.4209 C.3       1 <0>        -0.1258
     10 C10        -3.5163   -2.0558   -2.8605 C.3       1 <0>         0.1425
     11 C11        -4.7894   -2.9145   -2.8613 C.3       1 <0>         0.1177
     12 N1         -5.8592   -2.1569   -2.1963 N.pl3     1 <0>        -0.7108
     13 C12        -6.0450   -0.8235   -2.5259 C.2       1 <0>         0.3932
     14 C13        -5.0387   -0.1264   -3.1799 C.2       1 <0>        -0.0822
     15 C14        -5.2423    1.2196   -3.5016 C.2       1 <0>         0.5391
     16 N2         -6.4175    1.7933   -3.1626 N.am      1 <0>        -0.6497
     17 C15        -7.3742    1.0658   -2.5241 C.2       1 <0>         0.6233
     18 N3         -7.1887   -0.2004   -2.2180 N.2       1 <0>        -0.5910
     19 N4         -8.5611    1.6679   -2.1905 N.pl3     1 <0>        -0.8297
     20 O1         -4.3764    1.8622   -4.0760 O.2       1 <0>        -0.5462
     21 N5         -3.8300   -0.7752   -3.5147 N.pl3     1 <0>        -0.7255
     22 C16         3.6569    2.1603   -0.0218 C.2       1 <0>         0.5484
     23 O2          3.6435    3.3757   -0.0155 O.2       1 <0>        -0.5558
     24 N6          4.8314    1.4994   -0.0366 N.am      1 <0>        -0.6749
     25 C17         6.0919    2.2459   -0.0451 C.3       1 <0>         0.0726
     26 C18         7.1909    1.3839   -0.6698 C.3       1 <0>        -0.0809
     27 C19         6.8626    1.1271   -2.1419 C.3       1 <0>        -0.1777
     28 C20         7.9450    0.2781   -2.7573 C.2       1 <0>         0.4912
     29 O3          8.8913   -0.0876   -2.0810 O.co2     1 <0>        -0.6976
     30 O4          7.8745   -0.0430   -3.9313 O.co2     1 <0>        -0.7197
     31 C21         6.4748    2.6012    1.3685 C.2       1 <0>         0.4973
     32 O5          5.8674    2.1124    2.3058 O.co2     1 <0>        -0.6980
     33 O6          7.3921    3.3775    1.5748 O.co2     1 <0>        -0.7011
     34 H1         -0.9598    1.9054    0.0260 H         1 <0>         0.1191
     35 H2          1.1508    3.1682    0.0077 H         1 <0>         0.1324
     36 H3          3.3358   -0.5219   -0.0330 H         1 <0>         0.1285
     37 H4          1.2138   -1.7656   -0.0191 H         1 <0>         0.1226
     38 H5         -1.1489   -1.7256    0.5176 H         1 <0>         0.0686
     39 H6         -2.0557   -0.1941    0.5345 H         1 <0>         0.0654
     40 H7         -1.8929   -0.0704   -1.9367 H         1 <0>         0.0683
     41 H8         -0.9861   -1.6019   -1.9536 H         1 <0>         0.0633
     42 H9         -2.9179   -2.7573   -0.9136 H         1 <0>         0.0656
     43 H10        -3.8248   -1.2258   -0.8967 H         1 <0>         0.0632
     44 H11        -2.7262   -2.5667   -3.4108 H         1 <0>         0.0963
     45 H12        -5.0810   -3.1379   -3.8876 H         1 <0>         0.0654
     46 H13        -4.6064   -3.8431   -2.3207 H         1 <0>         0.0914
     47 H14        -6.4273   -2.5842   -1.5363 H         1 <0>         0.4040
     48 H15        -8.7102    2.6009   -2.4100 H         1 <0>         0.4119
     49 H16        -9.2512    1.1605   -1.7353 H         1 <0>         0.4245
     50 H17        -3.2203   -0.3857   -4.1608 H         1 <0>         0.4049
     51 H18         4.8421    0.5294   -0.0416 H         1 <0>         0.3899
     52 H19         5.9699    3.1583   -0.6287 H         1 <0>         0.0781
     53 H20         8.1462    1.9034   -0.5958 H         1 <0>         0.0771
     54 H21         7.2523    0.4333   -0.1400 H         1 <0>         0.0564
     55 H22         5.9072    0.6076   -2.2159 H         1 <0>         0.0505
     56 H23         6.8012    2.0777   -2.6717 H         1 <0>         0.0526
     57 H24        -6.5799    2.7257   -3.3751 H         1 <0>         0.4110
@<TRIPOS>BOND
     1    1    6 ar
     2    1    2 ar
     3    1   34 1
     4    2    3 ar
     5    2   35 1
     6    3    4 ar
     7    3   22 1
     8    4    5 ar
     9    4   36 1
    10    5    6 ar
    11    5   37 1
    12    6    7 1
    13    7    8 1
    14    7   38 1
    15    7   39 1
    16    8    9 1
    17    8   40 1
    18    8   41 1
    19    9   10 1
    20    9   42 1
    21    9   43 1
    22   10   21 1
    23   10   11 1
    24   10   44 1
    25   11   12 1
    26   11   45 1
    27   11   46 1
    28   12   13 1
    29   12   47 1
    30   13   18 1
    31   13   14 2
    32   14   15 1
    33   14   21 1
    34   15   16 am
    35   15   20 2
    36   16   17 1
    37   16   57 1
    38   17   18 2
    39   17   19 1
    40   19   48 1
    41   19   49 1
    42   21   50 1
    43   22   23 2
    44   22   24 am
    45   24   25 1
    46   24   51 1
    47   25   26 1
    48   25   31 1
    49   25   52 1
    50   26   27 1
    51   26   53 1
    52   26   54 1
    53   27   28 1
    54   27   55 1
    55   27   56 1
    56   28   29 2
    57   28   30 1
    58   31   32 2
    59   31   33 1
@<TRIPOS>MOLECULE
CHEMBL279302__6
   57    59     0     0     0
SMALL
USER_CHARGES

@<TRIPOS>ATOM
      1 C1         -0.0167    1.3794    0.0096 C.ar      1 <0>        -0.1267
      2 C2          1.1667    2.0884    0.0021 C.ar      1 <0>        -0.0629
      3 C3          2.3848    1.4070   -0.0132 C.ar      1 <0>        -0.1117
      4 C4          2.3966    0.0113   -0.0208 C.ar      1 <0>        -0.0830
      5 C5          1.2061   -0.6856   -0.0132 C.ar      1 <0>        -0.1248
      6 C6          0.0021   -0.0041    0.0020 C.ar      1 <0>        -0.0767
      7 C7         -1.2946   -0.7719    0.0103 C.3       1 <0>        -0.0730
      8 C8         -1.7472   -1.0241   -1.4293 C.3       1 <0>        -0.1125
      9 C9         -3.0637   -1.8037   -1.4209 C.3       1 <0>        -0.1245
     10 C10        -3.5163   -2.0558   -2.8605 C.3       1 <0>         0.1361
     11 C11        -4.7917   -2.9121   -2.8619 C.3       1 <0>         0.1241
     12 N1         -5.8624   -2.1421   -2.2122 N.pl3     1 <0>        -0.7319
     13 C12        -6.0353   -0.8142   -2.5483 C.2       1 <0>         0.3262
     14 C13        -5.0415   -0.1288   -3.1861 C.2       1 <0>        -0.0335
     15 C14        -5.2443    1.2274   -3.5122 C.2       1 <0>         0.5367
     16 N2         -6.4089    1.8151   -3.1918 N.2       1 <0>        -0.6296
     17 C15        -7.3611    1.1448   -2.5795 C.2       1 <0>         0.6527
     18 N3         -7.2048   -0.1654   -2.2467 N.pl3     1 <0>        -0.6354
     19 N4         -8.5362    1.7803   -2.2696 N.pl3     1 <0>        -0.8273
     20 O1         -4.3679    1.8633   -4.0813 O.2       1 <0>        -0.5227
     21 N5         -3.8302   -0.7755   -3.5153 N.pl3     1 <0>        -0.7218
     22 C16         3.6569    2.1603   -0.0218 C.2       1 <0>         0.5435
     23 O2          3.6435    3.3757   -0.0155 O.2       1 <0>        -0.5527
     24 N6          4.8314    1.4994   -0.0366 N.am      1 <0>        -0.6757
     25 C17         6.0919    2.2459   -0.0451 C.3       1 <0>         0.0735
     26 C18         7.2027    1.3778    0.5494 C.3       1 <0>        -0.0821
     27 C19         6.9032    1.1060    2.0250 C.3       1 <0>        -0.1773
     28 C20         7.9973    0.2510    2.6105 C.2       1 <0>         0.4913
     29 O3          8.9302   -0.1078    1.9123 O.co2     1 <0>        -0.6975
     30 O4          7.9496   -0.0820    3.7824 O.co2     1 <0>        -0.7199
     31 C21         6.4472    2.6155   -1.4622 C.2       1 <0>         0.4983
     32 O5          7.0818    3.6322   -1.6861 O.co2     1 <0>        -0.7012
     33 O6          6.1002    1.8979   -2.3847 O.co2     1 <0>        -0.6984
     34 H1         -0.9598    1.9054    0.0260 H         1 <0>         0.1203
     35 H2          1.1508    3.1682    0.0077 H         1 <0>         0.1333
     36 H3          3.3358   -0.5219   -0.0330 H         1 <0>         0.1291
     37 H4          1.2138   -1.7656   -0.0191 H         1 <0>         0.1225
     38 H5         -1.1489   -1.7256    0.5176 H         1 <0>         0.0682
     39 H6         -2.0557   -0.1941    0.5345 H         1 <0>         0.0653
     40 H7         -1.8929   -0.0704   -1.9367 H         1 <0>         0.0703
     41 H8         -0.9861   -1.6019   -1.9536 H         1 <0>         0.0641
     42 H9         -2.9179   -2.7573   -0.9136 H         1 <0>         0.0659
     43 H10        -3.8248   -1.2258   -0.8967 H         1 <0>         0.0623
     44 H11        -2.7269   -2.5677   -3.4109 H         1 <0>         0.0982
     45 H12        -5.0769   -3.1453   -3.8878 H         1 <0>         0.0670
     46 H13        -4.6155   -3.8352   -2.3097 H         1 <0>         0.0929
     47 H14        -6.4398   -2.5617   -1.5554 H         1 <0>         0.3980
     48 H15        -8.6585    2.7141   -2.5018 H         1 <0>         0.4298
     49 H16        -9.2451    1.2959   -1.8183 H         1 <0>         0.4079
     50 H17        -3.2186   -0.3848   -4.1589 H         1 <0>         0.4112
     51 H18         4.8421    0.5294   -0.0416 H         1 <0>         0.3911
     52 H19         5.9814    3.1523    0.5501 H         1 <0>         0.0777
     53 H20         7.2537    0.4325    0.0090 H         1 <0>         0.0601
     54 H21         8.1565    1.8981    0.4621 H         1 <0>         0.0727
     55 H22         6.8522    2.0513    2.5654 H         1 <0>         0.0528
     56 H23         5.9494    0.5857    2.1123 H         1 <0>         0.0510
     57 H24        -7.9208   -0.6403   -1.7964 H         1 <0>         0.4088
@<TRIPOS>BOND
     1    1    6 ar
     2    1    2 ar
     3    1   34 1
     4    2    3 ar
     5    2   35 1
     6    3    4 ar
     7    3   22 1
     8    4    5 ar
     9    4   36 1
    10    5    6 ar
    11    5   37 1
    12    6    7 1
    13    7    8 1
    14    7   38 1
    15    7   39 1
    16    8    9 1
    17    8   40 1
    18    8   41 1
    19    9   10 1
    20    9   42 1
    21    9   43 1
    22   10   21 1
    23   10   11 1
    24   10   44 1
    25   11   12 1
    26   11   45 1
    27   11   46 1
    28   12   13 1
    29   12   47 1
    30   13   18 1
    31   13   14 2
    32   14   15 1
    33   14   21 1
    34   15   16 1
    35   15   20 2
    36   16   17 2
    37   17   18 1
    38   17   19 1
    39   18   57 1
    40   19   48 1
    41   19   49 1
    42   21   50 1
    43   22   23 2
    44   22   24 am
    45   24   25 1
    46   24   51 1
    47   25   26 1
    48   25   31 1
    49   25   52 1
    50   26   27 1
    51   26   53 1
    52   26   54 1
    53   27   28 1
    54   27   55 1
    55   27   56 1
    56   28   29 2
    57   28   30 1
    58   31   32 2
    59   31   33 1
@<TRIPOS>MOLECULE
CHEMBL279302__7
   57    59     0     0     0
SMALL
USER_CHARGES

@<TRIPOS>ATOM
      1 C1         -0.0167    1.3794    0.0096 C.ar      1 <0>        -0.1276
      2 C2          1.1667    2.0884    0.0021 C.ar      1 <0>        -0.0635
      3 C3          2.3848    1.4070   -0.0132 C.ar      1 <0>        -0.1123
      4 C4          2.3966    0.0113   -0.0208 C.ar      1 <0>        -0.0826
      5 C5          1.2061   -0.6856   -0.0132 C.ar      1 <0>        -0.1246
      6 C6          0.0021   -0.0041    0.0020 C.ar      1 <0>        -0.0753
      7 C7         -1.2946   -0.7719    0.0103 C.3       1 <0>        -0.0740
      8 C8         -1.7472   -1.0241   -1.4293 C.3       1 <0>        -0.1107
      9 C9         -3.0637   -1.8037   -1.4209 C.3       1 <0>        -0.1258
     10 C10        -3.5163   -2.0558   -2.8605 C.3       1 <0>         0.1426
     11 C11        -4.7894   -2.9145   -2.8613 C.3       1 <0>         0.1178
     12 N1         -5.8592   -2.1569   -2.1963 N.pl3     1 <0>        -0.7108
     13 C12        -6.0450   -0.8235   -2.5259 C.2       1 <0>         0.3931
     14 C13        -5.0387   -0.1264   -3.1799 C.2       1 <0>        -0.0823
     15 C14        -5.2423    1.2196   -3.5016 C.2       1 <0>         0.5390
     16 N2         -6.4175    1.7933   -3.1626 N.am      1 <0>        -0.6498
     17 C15        -7.3742    1.0658   -2.5241 C.2       1 <0>         0.6233
     18 N3         -7.1887   -0.2004   -2.2180 N.2       1 <0>        -0.5911
     19 N4         -8.5611    1.6679   -2.1905 N.pl3     1 <0>        -0.8297
     20 O1         -4.3764    1.8622   -4.0760 O.2       1 <0>        -0.5457
     21 N5         -3.8300   -0.7752   -3.5147 N.pl3     1 <0>        -0.7256
     22 C16         3.6569    2.1603   -0.0218 C.2       1 <0>         0.5437
     23 O2          3.6435    3.3757   -0.0155 O.2       1 <0>        -0.5535
     24 N6          4.8314    1.4994   -0.0366 N.am      1 <0>        -0.6755
     25 C17         6.0919    2.2459   -0.0451 C.3       1 <0>         0.0735
     26 C18         7.2027    1.3778    0.5494 C.3       1 <0>        -0.0822
     27 C19         6.9032    1.1060    2.0250 C.3       1 <0>        -0.1773
     28 C20         7.9973    0.2510    2.6105 C.2       1 <0>         0.4913
     29 O3          8.9302   -0.1078    1.9123 O.co2     1 <0>        -0.6975
     30 O4          7.9496   -0.0820    3.7824 O.co2     1 <0>        -0.7197
     31 C21         6.4472    2.6155   -1.4622 C.2       1 <0>         0.4984
     32 O5          7.0818    3.6322   -1.6861 O.co2     1 <0>        -0.7013
     33 O6          6.1002    1.8979   -2.3847 O.co2     1 <0>        -0.6984
     34 H1         -0.9598    1.9054    0.0260 H         1 <0>         0.1194
     35 H2          1.1508    3.1682    0.0077 H         1 <0>         0.1326
     36 H3          3.3358   -0.5219   -0.0330 H         1 <0>         0.1292
     37 H4          1.2138   -1.7656   -0.0191 H         1 <0>         0.1230
     38 H5         -1.1489   -1.7256    0.5176 H         1 <0>         0.0689
     39 H6         -2.0557   -0.1941    0.5345 H         1 <0>         0.0655
     40 H7         -1.8929   -0.0704   -1.9367 H         1 <0>         0.0684
     41 H8         -0.9861   -1.6019   -1.9536 H         1 <0>         0.0633
     42 H9         -2.9179   -2.7573   -0.9136 H         1 <0>         0.0657
     43 H10        -3.8248   -1.2258   -0.8967 H         1 <0>         0.0633
     44 H11        -2.7262   -2.5667   -3.4108 H         1 <0>         0.0961
     45 H12        -5.0810   -3.1379   -3.8876 H         1 <0>         0.0653
     46 H13        -4.6064   -3.8431   -2.3207 H         1 <0>         0.0914
     47 H14        -6.4273   -2.5842   -1.5363 H         1 <0>         0.4041
     48 H15        -8.7102    2.6009   -2.4100 H         1 <0>         0.4119
     49 H16        -9.2512    1.1605   -1.7353 H         1 <0>         0.4245
     50 H17        -3.2203   -0.3857   -4.1608 H         1 <0>         0.4050
     51 H18         4.8421    0.5294   -0.0416 H         1 <0>         0.3913
     52 H19         5.9814    3.1523    0.5501 H         1 <0>         0.0777
     53 H20         7.2537    0.4325    0.0090 H         1 <0>         0.0602
     54 H21         8.1565    1.8981    0.4621 H         1 <0>         0.0727
     55 H22         6.8522    2.0513    2.5654 H         1 <0>         0.0527
     56 H23         5.9494    0.5857    2.1123 H         1 <0>         0.0511
     57 H24        -6.5799    2.7257   -3.3751 H         1 <0>         0.4111
@<TRIPOS>BOND
     1    1    6 ar
     2    1    2 ar
     3    1   34 1
     4    2    3 ar
     5    2   35 1
     6    3    4 ar
     7    3   22 1
     8    4    5 ar
     9    4   36 1
    10    5    6 ar
    11    5   37 1
    12    6    7 1
    13    7    8 1
    14    7   38 1
    15    7   39 1
    16    8    9 1
    17    8   40 1
    18    8   41 1
    19    9   10 1
    20    9   42 1
    21    9   43 1
    22   10   21 1
    23   10   11 1
    24   10   44 1
    25   11   12 1
    26   11   45 1
    27   11   46 1
    28   12   13 1
    29   12   47 1
    30   13   18 1
    31   13   14 2
    32   14   15 1
    33   14   21 1
    34   15   16 am
    35   15   20 2
    36   16   17 1
    37   16   57 1
    38   17   18 2
    39   17   19 1
    40   19   48 1
    41   19   49 1
    42   21   50 1
    43   22   23 2
    44   22   24 am
    45   24   25 1
    46   24   51 1
    47   25   26 1
    48   25   31 1
    49   25   52 1
    50   26   27 1
    51   26   53 1
    52   26   54 1
    53   27   28 1
    54   27   55 1
    55   27   56 1
    56   28   29 2
    57   28   30 1
    58   31   32 2
    59   31   33 1
@<TRIPOS>MOLECULE
CHEMBL417696
   55    57     0     0     0
SMALL
USER_CHARGES

@<TRIPOS>ATOM
      1 C1         -0.0169    1.3937    0.0097 C.ar      1 <0>        -0.0176
      2 C2          1.1662    2.0965    0.0022 C.ar      1 <0>        -0.2063
      3 C3          2.3811    1.4169   -0.0131 C.ar      1 <0>         0.2241
      4 C4          2.4034    0.0249   -0.0208 C.ar      1 <0>        -0.2015
      5 C5          1.2237   -0.6836   -0.0138 C.ar      1 <0>        -0.0367
      6 C6          0.0021   -0.0041    0.0020 C.ar      1 <0>        -0.1683
      7 C7         -1.2644   -0.7605    0.0105 C.2       1 <0>         0.5509
      8 O1         -2.3263   -0.1682    0.0243 O.2       1 <0>        -0.5591
      9 N1         -1.2445   -2.1081    0.0031 N.am      1 <0>        -0.6822
     10 C8         -2.5022   -2.8593    0.0116 C.3       1 <0>         0.0827
     11 C9         -2.2637   -4.2464    0.6114 C.3       1 <0>        -0.0885
     12 C10        -1.8670   -4.1047    2.0823 C.3       1 <0>        -0.6665
     13 S1         -1.5843   -5.7493    2.7935 S.o2      1 <0>         2.6434
     14 O2         -1.2087   -5.5935    4.1902 O.2       1 <0>        -1.0804
     15 O3         -2.8129   -6.5205    2.6844 O.2       1 <0>        -1.0680
     16 O4         -0.5138   -6.3984    2.0526 O.3       1 <0>        -1.0691
     17 C11        -3.0110   -3.0030   -1.3996 C.2       1 <0>         0.4964
     18 O5         -2.2242   -3.0459   -2.3300 O.co2     1 <0>        -0.6949
     19 O6         -4.2095   -3.0763   -1.6111 O.co2     1 <0>        -0.6987
     20 N2          3.5749    2.1299   -0.0211 N.pl3     1 <0>        -0.7477
     21 C12         4.8542    1.4162   -0.0371 C.3       1 <0>         0.1305
     22 C13         6.0023    2.4276   -0.0432 C.3       1 <0>        -0.1132
     23 C14         7.3358    1.6889   -0.1672 C.3       1 <0>        -0.0213
     24 C15         8.4815    2.6359    0.0618 C.2       1 <0>        -0.3898
     25 C16         8.3137    3.8364    0.7281 C.2       1 <0>         0.4845
     26 N3          9.3652    4.6459    0.9152 N.2       1 <0>        -0.6233
     27 C17        10.5608    4.3233    0.4706 C.2       1 <0>         0.6607
     28 N4         10.7769    3.1563   -0.1953 N.am      1 <0>        -0.6614
     29 C18         9.7567    2.3000   -0.4091 C.2       1 <0>         0.5558
     30 O7          9.9423    1.2494   -1.0029 O.2       1 <0>        -0.5471
     31 N5         11.6087    5.1792    0.6819 N.pl3     1 <0>        -0.8228
     32 N6          7.0723    4.2181    1.2008 N.pl3     1 <0>        -0.7070
     33 C19         5.9973    3.2195    1.2710 C.3       1 <0>         0.1281
     34 H1         -0.9590    1.9215    0.0260 H         1 <0>         0.1323
     35 H2          1.1522    3.1764    0.0078 H         1 <0>         0.1192
     36 H3          3.3474   -0.4995   -0.0326 H         1 <0>         0.1243
     37 H4          1.2416   -1.7634   -0.0204 H         1 <0>         0.1290
     38 H5         -0.3974   -2.5806   -0.0078 H         1 <0>         0.3916
     39 H6         -3.2399   -2.3261    0.6112 H         1 <0>         0.0810
     40 H7         -3.1771   -4.8365    0.5367 H         1 <0>         0.0855
     41 H8         -1.4631   -4.7456    0.0656 H         1 <0>         0.0737
     42 H9         -0.9536   -3.5146    2.1570 H         1 <0>         0.0963
     43 H10        -2.6677   -3.6056    2.6281 H         1 <0>         0.0996
     44 H11         3.5606    3.0997   -0.0161 H         1 <0>         0.3951
     45 H12         4.9299    0.7860    0.8490 H         1 <0>         0.0670
     46 H13         4.9126    0.7950   -0.9309 H         1 <0>         0.0694
     47 H14         5.8818    3.1122   -0.8828 H         1 <0>         0.0842
     48 H15         7.3753    0.8893    0.5726 H         1 <0>         0.0663
     49 H16         7.4180    1.2579   -1.1650 H         1 <0>         0.0776
     50 H17        11.4654    6.0137    1.1551 H         1 <0>         0.4274
     51 H18        12.4942    4.9510    0.3583 H         1 <0>         0.4146
     52 H19         6.9132    5.1325    1.4826 H         1 <0>         0.4081
     53 H20         5.0370    3.7195    1.3966 H         1 <0>         0.0896
     54 H21         6.1749    2.5450    2.1086 H         1 <0>         0.0732
     55 H22        11.6661    2.9399   -0.5171 H         1 <0>         0.4092
@<TRIPOS>BOND
     1    1    6 ar
     2    1    2 ar
     3    1   34 1
     4    2    3 ar
     5    2   35 1
     6    3    4 ar
     7    3   20 1
     8    4    5 ar
     9    4   36 1
    10    5    6 ar
    11    5   37 1
    12    6    7 1
    13    7    8 2
    14    7    9 am
    15    9   10 1
    16    9   38 1
    17   10   11 1
    18   10   17 1
    19   10   39 1
    20   11   12 1
    21   11   40 1
    22   11   41 1
    23   12   13 1
    24   12   42 1
    25   12   43 1
    26   13   14 2
    27   13   15 2
    28   13   16 1
    29   17   18 2
    30   17   19 1
    31   20   21 1
    32   20   44 1
    33   21   22 1
    34   21   45 1
    35   21   46 1
    36   22   33 1
    37   22   23 1
    38   22   47 1
    39   23   24 1
    40   23   48 1
    41   23   49 1
    42   24   29 1
    43   24   25 2
    44   25   26 1
    45   25   32 1
    46   26   27 2
    47   27   28 1
    48   27   31 1
    49   28   29 am
    50   28   55 1
    51   29   30 2
    52   31   50 1
    53   31   51 1
    54   32   33 1
    55   32   52 1
    56   33   53 1
    57   33   54 1
@<TRIPOS>MOLECULE
CHEMBL417696__1
   55    57     0     0     0
SMALL
USER_CHARGES

@<TRIPOS>ATOM
      1 C1         -0.0169    1.3937    0.0097 C.ar      1 <0>        -0.0182
      2 C2          1.1662    2.0965    0.0022 C.ar      1 <0>        -0.2059
      3 C3          2.3811    1.4169   -0.0131 C.ar      1 <0>         0.2222
      4 C4          2.4034    0.0249   -0.0208 C.ar      1 <0>        -0.2008
      5 C5          1.2237   -0.6836   -0.0138 C.ar      1 <0>        -0.0371
      6 C6          0.0021   -0.0041    0.0020 C.ar      1 <0>        -0.1652
      7 C7         -1.2644   -0.7605    0.0105 C.2       1 <0>         0.5552
      8 O1         -2.3263   -0.1682    0.0243 O.2       1 <0>        -0.5613
      9 N1         -1.2445   -2.1081    0.0031 N.am      1 <0>        -0.6811
     10 C8         -2.5022   -2.8593    0.0116 C.3       1 <0>         0.0818
     11 C9         -2.2637   -4.2464    0.6114 C.3       1 <0>        -0.0874
     12 C10        -1.8670   -4.1047    2.0823 C.3       1 <0>        -0.6667
     13 S1         -1.5843   -5.7493    2.7935 S.o2      1 <0>         2.6433
     14 O2         -1.2087   -5.5935    4.1902 O.2       1 <0>        -1.0807
     15 O3         -2.8129   -6.5205    2.6844 O.2       1 <0>        -1.0673
     16 O4         -0.5138   -6.3984    2.0526 O.3       1 <0>        -1.0695
     17 C11        -3.0110   -3.0030   -1.3996 C.2       1 <0>         0.4952
     18 O5         -2.3006   -2.6873   -2.3389 O.co2     1 <0>        -0.6933
     19 O6         -4.1331   -3.4348   -1.6021 O.co2     1 <0>        -0.6990
     20 N2          3.5749    2.1299   -0.0211 N.pl3     1 <0>        -0.7486
     21 C12         4.8542    1.4162   -0.0371 C.3       1 <0>         0.1302
     22 C13         6.0023    2.4276   -0.0432 C.3       1 <0>        -0.1157
     23 C14         7.3362    1.6891   -0.1642 C.3       1 <0>        -0.0297
     24 C15         8.4820    2.6342    0.0740 C.2       1 <0>        -0.3419
     25 C16         8.3182    3.8122    0.7338 C.2       1 <0>         0.4453
     26 N3          9.4036    4.6283    0.9278 N.pl3     1 <0>        -0.6542
     27 C17        10.6277    4.2627    0.4584 C.2       1 <0>         0.6587
     28 N4         10.7977    3.1282   -0.1858 N.2       1 <0>        -0.6341
     29 C18         9.7681    2.2941   -0.3982 C.2       1 <0>         0.5448
     30 O7          9.9432    1.2438   -0.9989 O.2       1 <0>        -0.5251
     31 N5         11.7006    5.0899    0.6598 N.pl3     1 <0>        -0.8248
     32 N6          7.0861    4.2044    1.2049 N.pl3     1 <0>        -0.7317
     33 C19         5.9977    3.2199    1.2712 C.3       1 <0>         0.1332
     34 H1         -0.9590    1.9215    0.0260 H         1 <0>         0.1322
     35 H2          1.1522    3.1764    0.0078 H         1 <0>         0.1185
     36 H3          3.3474   -0.4995   -0.0326 H         1 <0>         0.1244
     37 H4          1.2416   -1.7634   -0.0204 H         1 <0>         0.1289
     38 H5         -0.3974   -2.5806   -0.0078 H         1 <0>         0.3902
     39 H6         -3.2399   -2.3261    0.6112 H         1 <0>         0.0814
     40 H7         -3.1771   -4.8365    0.5367 H         1 <0>         0.0900
     41 H8         -1.4631   -4.7456    0.0656 H         1 <0>         0.0702
     42 H9         -0.9536   -3.5146    2.1570 H         1 <0>         0.0957
     43 H10        -2.6677   -3.6056    2.6281 H         1 <0>         0.0994
     44 H11         3.5606    3.0997   -0.0161 H         1 <0>         0.3941
     45 H12         4.9299    0.7860    0.8490 H         1 <0>         0.0676
     46 H13         4.9126    0.7950   -0.9309 H         1 <0>         0.0712
     47 H14         5.8826    3.1118   -0.8832 H         1 <0>         0.0854
     48 H15         7.3720    0.8863    0.5721 H         1 <0>         0.0734
     49 H16         7.4227    1.2623   -1.1635 H         1 <0>         0.0860
     50 H17        11.5844    5.9284    1.1335 H         1 <0>         0.4091
     51 H18        12.5766    4.8373    0.3288 H         1 <0>         0.4308
     52 H19         6.9380    5.1198    1.4894 H         1 <0>         0.4030
     53 H20         5.0431    3.7325    1.3901 H         1 <0>         0.0923
     54 H21         6.1617    2.5440    2.1104 H         1 <0>         0.0761
     55 H22         9.2984    5.4687    1.4006 H         1 <0>         0.4100
@<TRIPOS>BOND
     1    1    6 ar
     2    1    2 ar
     3    1   34 1
     4    2    3 ar
     5    2   35 1
     6    3    4 ar
     7    3   20 1
     8    4    5 ar
     9    4   36 1
    10    5    6 ar
    11    5   37 1
    12    6    7 1
    13    7    8 2
    14    7    9 am
    15    9   10 1
    16    9   38 1
    17   10   11 1
    18   10   17 1
    19   10   39 1
    20   11   12 1
    21   11   40 1
    22   11   41 1
    23   12   13 1
    24   12   42 1
    25   12   43 1
    26   13   14 2
    27   13   15 2
    28   13   16 1
    29   17   18 2
    30   17   19 1
    31   20   21 1
    32   20   44 1
    33   21   22 1
    34   21   45 1
    35   21   46 1
    36   22   33 1
    37   22   23 1
    38   22   47 1
    39   23   24 1
    40   23   48 1
    41   23   49 1
    42   24   29 1
    43   24   25 2
    44   25   26 1
    45   25   32 1
    46   26   27 1
    47   26   55 1
    48   27   28 2
    49   27   31 1
    50   28   29 1
    51   29   30 2
    52   31   50 1
    53   31   51 1
    54   32   33 1
    55   32   52 1
    56   33   53 1
    57   33   54 1
@<TRIPOS>MOLECULE
CHEMBL417696__2
   55    57     0     0     0
SMALL
USER_CHARGES

@<TRIPOS>ATOM
      1 C1         -0.0169    1.3937    0.0097 C.ar      1 <0>        -0.0176
      2 C2          1.1662    2.0965    0.0022 C.ar      1 <0>        -0.2063
      3 C3          2.3811    1.4169   -0.0131 C.ar      1 <0>         0.2242
      4 C4          2.4034    0.0249   -0.0208 C.ar      1 <0>        -0.2015
      5 C5          1.2237   -0.6836   -0.0138 C.ar      1 <0>        -0.0367
      6 C6          0.0021   -0.0041    0.0020 C.ar      1 <0>        -0.1683
      7 C7         -1.2644   -0.7605    0.0105 C.2       1 <0>         0.5509
      8 O1         -2.3263   -0.1682    0.0243 O.2       1 <0>        -0.5591
      9 N1         -1.2445   -2.1081    0.0031 N.am      1 <0>        -0.6822
     10 C8         -2.5022   -2.8593    0.0116 C.3       1 <0>         0.0827
     11 C9         -2.2637   -4.2464    0.6114 C.3       1 <0>        -0.0884
     12 C10        -1.8670   -4.1047    2.0823 C.3       1 <0>        -0.6666
     13 S1         -1.5843   -5.7493    2.7935 S.o2      1 <0>         2.6434
     14 O2         -1.2087   -5.5935    4.1902 O.2       1 <0>        -1.0802
     15 O3         -2.8129   -6.5205    2.6844 O.2       1 <0>        -1.0681
     16 O4         -0.5138   -6.3984    2.0526 O.3       1 <0>        -1.0692
     17 C11        -3.0110   -3.0030   -1.3996 C.2       1 <0>         0.4966
     18 O5         -2.2242   -3.0459   -2.3300 O.co2     1 <0>        -0.6952
     19 O6         -4.2095   -3.0763   -1.6111 O.co2     1 <0>        -0.6987
     20 N2          3.5749    2.1299   -0.0211 N.pl3     1 <0>        -0.7477
     21 C12         4.8542    1.4162   -0.0371 C.3       1 <0>         0.1305
     22 C13         6.0023    2.4276   -0.0432 C.3       1 <0>        -0.1133
     23 C14         7.3378    1.6878    0.0473 C.3       1 <0>        -0.0213
     24 C15         8.4790    2.6372   -0.1944 C.2       1 <0>        -0.3897
     25 C16         8.2984    3.8443   -0.8452 C.2       1 <0>         0.4844
     26 N3          9.3461    4.6557   -1.0446 N.2       1 <0>        -0.6234
     27 C17        10.5501    4.3288   -0.6266 C.2       1 <0>         0.6607
     28 N4         10.7791    3.1552    0.0232 N.am      1 <0>        -0.6614
     29 C18         9.7631    2.2967    0.2481 C.2       1 <0>         0.5557
     30 O7          9.9599    1.2405    0.8283 O.2       1 <0>        -0.5468
     31 N5         11.5939    5.1865   -0.8504 N.pl3     1 <0>        -0.8228
     32 N6          7.0480    4.2306   -1.2898 N.pl3     1 <0>        -0.7070
     33 C19         5.9718    3.2327   -1.3491 C.3       1 <0>         0.1282
     34 H1         -0.9590    1.9215    0.0260 H         1 <0>         0.1323
     35 H2          1.1522    3.1764    0.0078 H         1 <0>         0.1192
     36 H3          3.3474   -0.4995   -0.0326 H         1 <0>         0.1243
     37 H4          1.2416   -1.7634   -0.0204 H         1 <0>         0.1290
     38 H5         -0.3974   -2.5806   -0.0078 H         1 <0>         0.3916
     39 H6         -3.2399   -2.3261    0.6112 H         1 <0>         0.0810
     40 H7         -3.1771   -4.8365    0.5367 H         1 <0>         0.0855
     41 H8         -1.4631   -4.7456    0.0656 H         1 <0>         0.0736
     42 H9         -0.9536   -3.5146    2.1570 H         1 <0>         0.0964
     43 H10        -2.6677   -3.6056    2.6281 H         1 <0>         0.0996
     44 H11         3.5606    3.0997   -0.0161 H         1 <0>         0.3951
     45 H12         4.9299    0.7860    0.8490 H         1 <0>         0.0696
     46 H13         4.9126    0.7950   -0.9309 H         1 <0>         0.0667
     47 H14         5.8983    3.1037    0.8054 H         1 <0>         0.0843
     48 H15         7.4394    1.2468    1.0389 H         1 <0>         0.0778
     49 H16         7.3629    0.8958   -0.7011 H         1 <0>         0.0662
     50 H17        11.4417    6.0254   -1.3129 H         1 <0>         0.4274
     51 H18        12.4855    4.9551   -0.5464 H         1 <0>         0.4146
     52 H19         6.8834    5.1480   -1.5586 H         1 <0>         0.4081
     53 H20         6.1330    2.5666   -2.1968 H         1 <0>         0.0730
     54 H21         5.0092    3.7339   -1.4509 H         1 <0>         0.0897
     55 H22        11.6744    2.9354    0.3249 H         1 <0>         0.4092
@<TRIPOS>BOND
     1    1    6 ar
     2    1    2 ar
     3    1   34 1
     4    2    3 ar
     5    2   35 1
     6    3    4 ar
     7    3   20 1
     8    4    5 ar
     9    4   36 1
    10    5    6 ar
    11    5   37 1
    12    6    7 1
    13    7    8 2
    14    7    9 am
    15    9   10 1
    16    9   38 1
    17   10   11 1
    18   10   17 1
    19   10   39 1
    20   11   12 1
    21   11   40 1
    22   11   41 1
    23   12   13 1
    24   12   42 1
    25   12   43 1
    26   13   14 2
    27   13   15 2
    28   13   16 1
    29   17   18 2
    30   17   19 1
    31   20   21 1
    32   20   44 1
    33   21   22 1
    34   21   45 1
    35   21   46 1
    36   22   33 1
    37   22   23 1
    38   22   47 1
    39   23   24 1
    40   23   48 1
    41   23   49 1
    42   24   29 1
    43   24   25 2
    44   25   26 1
    45   25   32 1
    46   26   27 2
    47   27   28 1
    48   27   31 1
    49   28   29 am
    50   28   55 1
    51   29   30 2
    52   31   50 1
    53   31   51 1
    54   32   33 1
    55   32   52 1
    56   33   53 1
    57   33   54 1
@<TRIPOS>MOLECULE
CHEMBL417696__3
   55    57     0     0     0
SMALL
USER_CHARGES

@<TRIPOS>ATOM
      1 C1         -0.0169    1.3937    0.0097 C.ar      1 <0>        -0.0183
      2 C2          1.1662    2.0965    0.0022 C.ar      1 <0>        -0.2059
      3 C3          2.3811    1.4169   -0.0131 C.ar      1 <0>         0.2223
      4 C4          2.4034    0.0249   -0.0208 C.ar      1 <0>        -0.2008
      5 C5          1.2237   -0.6836   -0.0138 C.ar      1 <0>        -0.0371
      6 C6          0.0021   -0.0041    0.0020 C.ar      1 <0>        -0.1652
      7 C7         -1.2644   -0.7605    0.0105 C.2       1 <0>         0.5552
      8 O1         -2.3263   -0.1682    0.0243 O.2       1 <0>        -0.5613
      9 N1         -1.2445   -2.1081    0.0031 N.am      1 <0>        -0.6811
     10 C8         -2.5022   -2.8593    0.0116 C.3       1 <0>         0.0818
     11 C9         -2.2637   -4.2464    0.6114 C.3       1 <0>        -0.0873
     12 C10        -1.8670   -4.1047    2.0823 C.3       1 <0>        -0.6670
     13 S1         -1.5843   -5.7493    2.7935 S.o2      1 <0>         2.6433
     14 O2         -1.2087   -5.5935    4.1902 O.2       1 <0>        -1.0802
     15 O3         -2.8129   -6.5205    2.6844 O.2       1 <0>        -1.0675
     16 O4         -0.5138   -6.3984    2.0526 O.3       1 <0>        -1.0696
     17 C11        -3.0110   -3.0030   -1.3996 C.2       1 <0>         0.4954
     18 O5         -2.3006   -2.6873   -2.3389 O.co2     1 <0>        -0.6938
     19 O6         -4.1331   -3.4348   -1.6021 O.co2     1 <0>        -0.6990
     20 N2          3.5749    2.1299   -0.0211 N.pl3     1 <0>        -0.7486
     21 C12         4.8542    1.4162   -0.0371 C.3       1 <0>         0.1302
     22 C13         6.0023    2.4276   -0.0432 C.3       1 <0>        -0.1157
     23 C14         7.3382    1.6881    0.0444 C.3       1 <0>        -0.0297
     24 C15         8.4792    2.6356   -0.2067 C.2       1 <0>        -0.3418
     25 C16         8.3028    3.8202   -0.8512 C.2       1 <0>         0.4451
     26 N3          9.3843    4.6383   -1.0581 N.pl3     1 <0>        -0.6543
     27 C17        10.6174    4.2677   -0.6171 C.2       1 <0>         0.6586
     28 N4         10.7999    3.1264    0.0114 N.2       1 <0>        -0.6340
     29 C18         9.7743    2.2909    0.2370 C.2       1 <0>         0.5446
     30 O7          9.9610    1.2346    0.8236 O.2       1 <0>        -0.5248
     31 N5         11.6864    5.0966   -0.8318 N.pl3     1 <0>        -0.8248
     32 N6          7.0618    4.2170   -1.2943 N.pl3     1 <0>        -0.7317
     33 C19         5.9722    3.2331   -1.3493 C.3       1 <0>         0.1332
     34 H1         -0.9590    1.9215    0.0260 H         1 <0>         0.1322
     35 H2          1.1522    3.1764    0.0078 H         1 <0>         0.1185
     36 H3          3.3474   -0.4995   -0.0326 H         1 <0>         0.1244
     37 H4          1.2416   -1.7634   -0.0204 H         1 <0>         0.1289
     38 H5         -0.3974   -2.5806   -0.0078 H         1 <0>         0.3902
     39 H6         -3.2399   -2.3261    0.6112 H         1 <0>         0.0814
     40 H7         -3.1771   -4.8365    0.5367 H         1 <0>         0.0899
     41 H8         -1.4631   -4.7456    0.0656 H         1 <0>         0.0701
     42 H9         -0.9536   -3.5146    2.1570 H         1 <0>         0.0958
     43 H10        -2.6677   -3.6056    2.6281 H         1 <0>         0.0995
     44 H11         3.5606    3.0997   -0.0161 H         1 <0>         0.3941
     45 H12         4.9299    0.7860    0.8490 H         1 <0>         0.0714
     46 H13         4.9126    0.7950   -0.9309 H         1 <0>         0.0674
     47 H14         5.8990    3.1033    0.8058 H         1 <0>         0.0855
     48 H15         7.4441    1.2512    1.0373 H         1 <0>         0.0862
     49 H16         7.3596    0.8927   -0.7006 H         1 <0>         0.0732
     50 H17        11.5610    5.9398   -1.2947 H         1 <0>         0.4091
     51 H18        12.5688    4.8404   -0.5210 H         1 <0>         0.4308
     52 H19         6.9083    5.1352   -1.5666 H         1 <0>         0.4030
     53 H20         6.1198    2.5657   -2.1983 H         1 <0>         0.0759
     54 H21         5.0155    3.7467   -1.4444 H         1 <0>         0.0924
     55 H22         9.2699    5.4834   -1.5202 H         1 <0>         0.4100
@<TRIPOS>BOND
     1    1    6 ar
     2    1    2 ar
     3    1   34 1
     4    2    3 ar
     5    2   35 1
     6    3    4 ar
     7    3   20 1
     8    4    5 ar
     9    4   36 1
    10    5    6 ar
    11    5   37 1
    12    6    7 1
    13    7    8 2
    14    7    9 am
    15    9   10 1
    16    9   38 1
    17   10   11 1
    18   10   17 1
    19   10   39 1
    20   11   12 1
    21   11   40 1
    22   11   41 1
    23   12   13 1
    24   12   42 1
    25   12   43 1
    26   13   14 2
    27   13   15 2
    28   13   16 1
    29   17   18 2
    30   17   19 1
    31   20   21 1
    32   20   44 1
    33   21   22 1
    34   21   45 1
    35   21   46 1
    36   22   33 1
    37   22   23 1
    38   22   47 1
    39   23   24 1
    40   23   48 1
    41   23   49 1
    42   24   29 1
    43   24   25 2
    44   25   26 1
    45   25   32 1
    46   26   27 1
    47   26   55 1
    48   27   28 2
    49   27   31 1
    50   28   29 1
    51   29   30 2
    52   31   50 1
    53   31   51 1
    54   32   33 1
    55   32   52 1
    56   33   53 1
    57   33   54 1
@<TRIPOS>MOLECULE
CHEMBL417696__4
   55    57     0     0     0
SMALL
USER_CHARGES

@<TRIPOS>ATOM
      1 C1         -0.0169    1.3937    0.0097 C.ar      1 <0>        -0.0180
      2 C2          1.1662    2.0965    0.0022 C.ar      1 <0>        -0.2060
      3 C3          2.3811    1.4169   -0.0131 C.ar      1 <0>         0.2231
      4 C4          2.4034    0.0249   -0.0208 C.ar      1 <0>        -0.2016
      5 C5          1.2237   -0.6836   -0.0138 C.ar      1 <0>        -0.0377
      6 C6          0.0021   -0.0041    0.0020 C.ar      1 <0>        -0.1656
      7 C7         -1.2644   -0.7605    0.0105 C.2       1 <0>         0.5577
      8 O1         -2.3263   -0.1682    0.0243 O.2       1 <0>        -0.5606
      9 N1         -1.2445   -2.1081    0.0031 N.am      1 <0>        -0.6826
     10 C8         -2.5022   -2.8593    0.0116 C.3       1 <0>         0.0817
     11 C9         -2.2758   -4.2399   -0.6078 C.3       1 <0>        -0.0865
     12 C10        -1.9084   -4.0824   -2.0846 C.3       1 <0>        -0.6671
     13 S1         -1.6400   -5.7192   -2.8189 S.o2      1 <0>         2.6435
     14 O2         -1.2922   -5.5484   -4.2210 O.2       1 <0>        -1.0808
     15 O3         -0.5551   -6.3761   -2.1064 O.2       1 <0>        -1.0701
     16 O4         -2.8663   -6.4916   -2.6937 O.3       1 <0>        -1.0674
     17 C11        -2.9829   -3.0182    1.4310 C.2       1 <0>         0.4942
     18 O5         -2.3350   -2.5475    2.3503 O.co2     1 <0>        -0.6924
     19 O6         -4.0198   -3.6173    1.6600 O.co2     1 <0>        -0.6988
     20 N2          3.5749    2.1299   -0.0211 N.pl3     1 <0>        -0.7480
     21 C12         4.8542    1.4162   -0.0371 C.3       1 <0>         0.1307
     22 C13         6.0023    2.4276   -0.0432 C.3       1 <0>        -0.1132
     23 C14         7.3358    1.6889   -0.1672 C.3       1 <0>        -0.0213
     24 C15         8.4815    2.6359    0.0618 C.2       1 <0>        -0.3897
     25 C16         8.3137    3.8364    0.7281 C.2       1 <0>         0.4844
     26 N3          9.3652    4.6459    0.9152 N.2       1 <0>        -0.6234
     27 C17        10.5608    4.3233    0.4706 C.2       1 <0>         0.6607
     28 N4         10.7769    3.1563   -0.1953 N.am      1 <0>        -0.6614
     29 C18         9.7567    2.3000   -0.4091 C.2       1 <0>         0.5557
     30 O7          9.9423    1.2494   -1.0029 O.2       1 <0>        -0.5468
     31 N5         11.6087    5.1792    0.6819 N.pl3     1 <0>        -0.8228
     32 N6          7.0723    4.2181    1.2008 N.pl3     1 <0>        -0.7070
     33 C19         5.9973    3.2195    1.2710 C.3       1 <0>         0.1282
     34 H1         -0.9590    1.9215    0.0260 H         1 <0>         0.1320
     35 H2          1.1522    3.1764    0.0078 H         1 <0>         0.1189
     36 H3          3.3474   -0.4995   -0.0326 H         1 <0>         0.1238
     37 H4          1.2416   -1.7634   -0.0204 H         1 <0>         0.1280
     38 H5         -0.3974   -2.5806   -0.0078 H         1 <0>         0.3894
     39 H6         -3.2516   -2.3197   -0.5676 H         1 <0>         0.0811
     40 H7         -1.4645   -4.7448   -0.0833 H         1 <0>         0.0685
     41 H8         -3.1876   -4.8309   -0.5212 H         1 <0>         0.0919
     42 H9         -2.7197   -3.5775   -2.6090 H         1 <0>         0.0992
     43 H10        -0.9966   -3.4914   -2.1711 H         1 <0>         0.0955
     44 H11         3.5606    3.0997   -0.0161 H         1 <0>         0.3949
     45 H12         4.9299    0.7860    0.8490 H         1 <0>         0.0665
     46 H13         4.9126    0.7950   -0.9309 H         1 <0>         0.0694
     47 H14         5.8818    3.1122   -0.8828 H         1 <0>         0.0843
     48 H15         7.3753    0.8893    0.5726 H         1 <0>         0.0661
     49 H16         7.4180    1.2579   -1.1650 H         1 <0>         0.0778
     50 H17        11.4654    6.0137    1.1551 H         1 <0>         0.4274
     51 H18        12.4942    4.9510    0.3583 H         1 <0>         0.4146
     52 H19         6.9132    5.1325    1.4826 H         1 <0>         0.4081
     53 H20         5.0370    3.7195    1.3966 H         1 <0>         0.0897
     54 H21         6.1749    2.5450    2.1086 H         1 <0>         0.0730
     55 H22        11.6661    2.9399   -0.5171 H         1 <0>         0.4092
@<TRIPOS>BOND
     1    1    6 ar
     2    1    2 ar
     3    1   34 1
     4    2    3 ar
     5    2   35 1
     6    3    4 ar
     7    3   20 1
     8    4    5 ar
     9    4   36 1
    10    5    6 ar
    11    5   37 1
    12    6    7 1
    13    7    8 2
    14    7    9 am
    15    9   10 1
    16    9   38 1
    17   10   11 1
    18   10   17 1
    19   10   39 1
    20   11   12 1
    21   11   40 1
    22   11   41 1
    23   12   13 1
    24   12   42 1
    25   12   43 1
    26   13   14 2
    27   13   15 2
    28   13   16 1
    29   17   18 2
    30   17   19 1
    31   20   21 1
    32   20   44 1
    33   21   22 1
    34   21   45 1
    35   21   46 1
    36   22   33 1
    37   22   23 1
    38   22   47 1
    39   23   24 1
    40   23   48 1
    41   23   49 1
    42   24   29 1
    43   24   25 2
    44   25   26 1
    45   25   32 1
    46   26   27 2
    47   27   28 1
    48   27   31 1
    49   28   29 am
    50   28   55 1
    51   29   30 2
    52   31   50 1
    53   31   51 1
    54   32   33 1
    55   32   52 1
    56   33   53 1
    57   33   54 1
@<TRIPOS>MOLECULE
CHEMBL417696__5
   55    57     0     0     0
SMALL
USER_CHARGES

@<TRIPOS>ATOM
      1 C1         -0.0169    1.3937    0.0097 C.ar      1 <0>        -0.0180
      2 C2          1.1662    2.0965    0.0022 C.ar      1 <0>        -0.2060
      3 C3          2.3811    1.4169   -0.0131 C.ar      1 <0>         0.2230
      4 C4          2.4034    0.0249   -0.0208 C.ar      1 <0>        -0.2007
      5 C5          1.2237   -0.6836   -0.0138 C.ar      1 <0>        -0.0366
      6 C6          0.0021   -0.0041    0.0020 C.ar      1 <0>        -0.1671
      7 C7         -1.2644   -0.7605    0.0105 C.2       1 <0>         0.5506
      8 O1         -2.3263   -0.1682    0.0243 O.2       1 <0>        -0.5590
      9 N1         -1.2445   -2.1081    0.0031 N.am      1 <0>        -0.6818
     10 C8         -2.5022   -2.8593    0.0116 C.3       1 <0>         0.0826
     11 C9         -2.2758   -4.2399   -0.6078 C.3       1 <0>        -0.0885
     12 C10        -1.9084   -4.0824   -2.0846 C.3       1 <0>        -0.6667
     13 S1         -1.6400   -5.7192   -2.8189 S.o2      1 <0>         2.6434
     14 O2         -1.2922   -5.5484   -4.2210 O.2       1 <0>        -1.0800
     15 O3         -0.5551   -6.3761   -2.1064 O.2       1 <0>        -1.0690
     16 O4         -2.8663   -6.4916   -2.6937 O.3       1 <0>        -1.0681
     17 C11        -2.9829   -3.0182    1.4310 C.2       1 <0>         0.4967
     18 O5         -4.1770   -3.0939    1.6654 O.co2     1 <0>        -0.6985
     19 O6         -2.1777   -3.0709    2.3450 O.co2     1 <0>        -0.6953
     20 N2          3.5749    2.1299   -0.0211 N.pl3     1 <0>        -0.7484
     21 C12         4.8542    1.4162   -0.0371 C.3       1 <0>         0.1301
     22 C13         6.0023    2.4276   -0.0432 C.3       1 <0>        -0.1157
     23 C14         7.3362    1.6891   -0.1642 C.3       1 <0>        -0.0297
     24 C15         8.4820    2.6342    0.0740 C.2       1 <0>        -0.3419
     25 C16         8.3182    3.8122    0.7338 C.2       1 <0>         0.4452
     26 N3          9.4036    4.6283    0.9278 N.pl3     1 <0>        -0.6543
     27 C17        10.6277    4.2627    0.4584 C.2       1 <0>         0.6586
     28 N4         10.7977    3.1282   -0.1858 N.2       1 <0>        -0.6340
     29 C18         9.7681    2.2941   -0.3982 C.2       1 <0>         0.5446
     30 O7          9.9432    1.2438   -0.9989 O.2       1 <0>        -0.5247
     31 N5         11.7006    5.0899    0.6598 N.pl3     1 <0>        -0.8248
     32 N6          7.0861    4.2044    1.2049 N.pl3     1 <0>        -0.7317
     33 C19         5.9977    3.2199    1.2712 C.3       1 <0>         0.1332
     34 H1         -0.9590    1.9215    0.0260 H         1 <0>         0.1324
     35 H2          1.1522    3.1764    0.0078 H         1 <0>         0.1188
     36 H3          3.3474   -0.4995   -0.0326 H         1 <0>         0.1247
     37 H4          1.2416   -1.7634   -0.0204 H         1 <0>         0.1295
     38 H5         -0.3974   -2.5806   -0.0078 H         1 <0>         0.3917
     39 H6         -3.2516   -2.3197   -0.5676 H         1 <0>         0.0811
     40 H7         -1.4645   -4.7448   -0.0833 H         1 <0>         0.0737
     41 H8         -3.1876   -4.8309   -0.5212 H         1 <0>         0.0856
     42 H9         -2.7197   -3.5775   -2.6090 H         1 <0>         0.0996
     43 H10        -0.9966   -3.4914   -2.1711 H         1 <0>         0.0963
     44 H11         3.5606    3.0997   -0.0161 H         1 <0>         0.3942
     45 H12         4.9299    0.7860    0.8490 H         1 <0>         0.0676
     46 H13         4.9126    0.7950   -0.9309 H         1 <0>         0.0716
     47 H14         5.8826    3.1118   -0.8832 H         1 <0>         0.0855
     48 H15         7.3720    0.8863    0.5721 H         1 <0>         0.0732
     49 H16         7.4227    1.2623   -1.1635 H         1 <0>         0.0862
     50 H17        11.5844    5.9284    1.1335 H         1 <0>         0.4090
     51 H18        12.5766    4.8373    0.3288 H         1 <0>         0.4308
     52 H19         6.9380    5.1198    1.4894 H         1 <0>         0.4030
     53 H20         5.0431    3.7325    1.3901 H         1 <0>         0.0923
     54 H21         6.1617    2.5440    2.1104 H         1 <0>         0.0759
     55 H22         9.2984    5.4687    1.4006 H         1 <0>         0.4100
@<TRIPOS>BOND
     1    1    6 ar
     2    1    2 ar
     3    1   34 1
     4    2    3 ar
     5    2   35 1
     6    3    4 ar
     7    3   20 1
     8    4    5 ar
     9    4   36 1
    10    5    6 ar
    11    5   37 1
    12    6    7 1
    13    7    8 2
    14    7    9 am
    15    9   10 1
    16    9   38 1
    17   10   11 1
    18   10   17 1
    19   10   39 1
    20   11   12 1
    21   11   40 1
    22   11   41 1
    23   12   13 1
    24   12   42 1
    25   12   43 1
    26   13   14 2
    27   13   15 2
    28   13   16 1
    29   17   18 2
    30   17   19 1
    31   20   21 1
    32   20   44 1
    33   21   22 1
    34   21   45 1
    35   21   46 1
    36   22   33 1
    37   22   23 1
    38   22   47 1
    39   23   24 1
    40   23   48 1
    41   23   49 1
    42   24   29 1
    43   24   25 2
    44   25   26 1
    45   25   32 1
    46   26   27 1
    47   26   55 1
    48   27   28 2
    49   27   31 1
    50   28   29 1
    51   29   30 2
    52   31   50 1
    53   31   51 1
    54   32   33 1
    55   32   52 1
    56   33   53 1
    57   33   54 1
@<TRIPOS>MOLECULE
CHEMBL417696__6
   55    57     0     0     0
SMALL
USER_CHARGES

@<TRIPOS>ATOM
      1 C1         -0.0169    1.3937    0.0097 C.ar      1 <0>        -0.0180
      2 C2          1.1662    2.0965    0.0022 C.ar      1 <0>        -0.2060
      3 C3          2.3811    1.4169   -0.0131 C.ar      1 <0>         0.2231
      4 C4          2.4034    0.0249   -0.0208 C.ar      1 <0>        -0.2016
      5 C5          1.2237   -0.6836   -0.0138 C.ar      1 <0>        -0.0378
      6 C6          0.0021   -0.0041    0.0020 C.ar      1 <0>        -0.1656
      7 C7         -1.2644   -0.7605    0.0105 C.2       1 <0>         0.5577
      8 O1         -2.3263   -0.1682    0.0243 O.2       1 <0>        -0.5606
      9 N1         -1.2445   -2.1081    0.0031 N.am      1 <0>        -0.6826
     10 C8         -2.5022   -2.8593    0.0116 C.3       1 <0>         0.0817
     11 C9         -2.2758   -4.2399   -0.6078 C.3       1 <0>        -0.0866
     12 C10        -1.9084   -4.0824   -2.0846 C.3       1 <0>        -0.6670
     13 S1         -1.6400   -5.7192   -2.8189 S.o2      1 <0>         2.6435
     14 O2         -1.2922   -5.5484   -4.2210 O.2       1 <0>        -1.0810
     15 O3         -0.5551   -6.3761   -2.1064 O.2       1 <0>        -1.0700
     16 O4         -2.8663   -6.4916   -2.6937 O.3       1 <0>        -1.0673
     17 C11        -2.9829   -3.0182    1.4310 C.2       1 <0>         0.4940
     18 O5         -2.3350   -2.5475    2.3503 O.co2     1 <0>        -0.6922
     19 O6         -4.0198   -3.6173    1.6600 O.co2     1 <0>        -0.6988
     20 N2          3.5749    2.1299   -0.0211 N.pl3     1 <0>        -0.7480
     21 C12         4.8542    1.4162   -0.0371 C.3       1 <0>         0.1307
     22 C13         6.0023    2.4276   -0.0432 C.3       1 <0>        -0.1132
     23 C14         7.3378    1.6878    0.0473 C.3       1 <0>        -0.0213
     24 C15         8.4790    2.6372   -0.1944 C.2       1 <0>        -0.3897
     25 C16         8.2984    3.8443   -0.8452 C.2       1 <0>         0.4845
     26 N3          9.3461    4.6557   -1.0446 N.2       1 <0>        -0.6233
     27 C17        10.5501    4.3288   -0.6266 C.2       1 <0>         0.6607
     28 N4         10.7791    3.1552    0.0232 N.am      1 <0>        -0.6614
     29 C18         9.7631    2.2967    0.2481 C.2       1 <0>         0.5558
     30 O7          9.9599    1.2405    0.8283 O.2       1 <0>        -0.5472
     31 N5         11.5939    5.1865   -0.8504 N.pl3     1 <0>        -0.8228
     32 N6          7.0480    4.2306   -1.2898 N.pl3     1 <0>        -0.7070
     33 C19         5.9718    3.2327   -1.3491 C.3       1 <0>         0.1281
     34 H1         -0.9590    1.9215    0.0260 H         1 <0>         0.1320
     35 H2          1.1522    3.1764    0.0078 H         1 <0>         0.1189
     36 H3          3.3474   -0.4995   -0.0326 H         1 <0>         0.1238
     37 H4          1.2416   -1.7634   -0.0204 H         1 <0>         0.1280
     38 H5         -0.3974   -2.5806   -0.0078 H         1 <0>         0.3894
     39 H6         -3.2516   -2.3197   -0.5676 H         1 <0>         0.0811
     40 H7         -1.4645   -4.7448   -0.0833 H         1 <0>         0.0685
     41 H8         -3.1876   -4.8309   -0.5212 H         1 <0>         0.0919
     42 H9         -2.7197   -3.5775   -2.6090 H         1 <0>         0.0992
     43 H10        -0.9966   -3.4914   -2.1711 H         1 <0>         0.0954
     44 H11         3.5606    3.0997   -0.0161 H         1 <0>         0.3949
     45 H12         4.9299    0.7860    0.8490 H         1 <0>         0.0691
     46 H13         4.9126    0.7950   -0.9309 H         1 <0>         0.0667
     47 H14         5.8983    3.1037    0.8054 H         1 <0>         0.0842
     48 H15         7.4394    1.2468    1.0389 H         1 <0>         0.0775
     49 H16         7.3629    0.8958   -0.7011 H         1 <0>         0.0663
     50 H17        11.4417    6.0254   -1.3129 H         1 <0>         0.4274
     51 H18        12.4855    4.9551   -0.5464 H         1 <0>         0.4145
     52 H19         6.8834    5.1480   -1.5586 H         1 <0>         0.4081
     53 H20         6.1330    2.5666   -2.1968 H         1 <0>         0.0732
     54 H21         5.0092    3.7339   -1.4509 H         1 <0>         0.0897
     55 H22        11.6744    2.9354    0.3249 H         1 <0>         0.4092
@<TRIPOS>BOND
     1    1    6 ar
     2    1    2 ar
     3    1   34 1
     4    2    3 ar
     5    2   35 1
     6    3    4 ar
     7    3   20 1
     8    4    5 ar
     9    4   36 1
    10    5    6 ar
    11    5   37 1
    12    6    7 1
    13    7    8 2
    14    7    9 am
    15    9   10 1
    16    9   38 1
    17   10   11 1
    18   10   17 1
    19   10   39 1
    20   11   12 1
    21   11   40 1
    22   11   41 1
    23   12   13 1
    24   12   42 1
    25   12   43 1
    26   13   14 2
    27   13   15 2
    28   13   16 1
    29   17   18 2
    30   17   19 1
    31   20   21 1
    32   20   44 1
    33   21   22 1
    34   21   45 1
    35   21   46 1
    36   22   33 1
    37   22   23 1
    38   22   47 1
    39   23   24 1
    40   23   48 1
    41   23   49 1
    42   24   29 1
    43   24   25 2
    44   25   26 1
    45   25   32 1
    46   26   27 2
    47   27   28 1
    48   27   31 1
    49   28   29 am
    50   28   55 1
    51   29   30 2
    52   31   50 1
    53   31   51 1
    54   32   33 1
    55   32   52 1
    56   33   53 1
    57   33   54 1
@<TRIPOS>MOLECULE
CHEMBL417696__7
   55    57     0     0     0
SMALL
USER_CHARGES

@<TRIPOS>ATOM
      1 C1         -0.0169    1.3937    0.0097 C.ar      1 <0>        -0.0180
      2 C2          1.1662    2.0965    0.0022 C.ar      1 <0>        -0.2060
      3 C3          2.3811    1.4169   -0.0131 C.ar      1 <0>         0.2229
      4 C4          2.4034    0.0249   -0.0208 C.ar      1 <0>        -0.2007
      5 C5          1.2237   -0.6836   -0.0138 C.ar      1 <0>        -0.0366
      6 C6          0.0021   -0.0041    0.0020 C.ar      1 <0>        -0.1670
      7 C7         -1.2644   -0.7605    0.0105 C.2       1 <0>         0.5505
      8 O1         -2.3263   -0.1682    0.0243 O.2       1 <0>        -0.5590
      9 N1         -1.2445   -2.1081    0.0031 N.am      1 <0>        -0.6818
     10 C8         -2.5022   -2.8593    0.0116 C.3       1 <0>         0.0827
     11 C9         -2.2758   -4.2399   -0.6078 C.3       1 <0>        -0.0886
     12 C10        -1.9084   -4.0824   -2.0846 C.3       1 <0>        -0.6665
     13 S1         -1.6400   -5.7192   -2.8189 S.o2      1 <0>         2.6434
     14 O2         -1.2922   -5.5484   -4.2210 O.2       1 <0>        -1.0805
     15 O3         -0.5551   -6.3761   -2.1064 O.2       1 <0>        -1.0689
     16 O4         -2.8663   -6.4916   -2.6937 O.3       1 <0>        -1.0679
     17 C11        -2.9829   -3.0182    1.4310 C.2       1 <0>         0.4964
     18 O5         -4.1770   -3.0939    1.6654 O.co2     1 <0>        -0.6986
     19 O6         -2.1777   -3.0709    2.3450 O.co2     1 <0>        -0.6948
     20 N2          3.5749    2.1299   -0.0211 N.pl3     1 <0>        -0.7484
     21 C12         4.8542    1.4162   -0.0371 C.3       1 <0>         0.1301
     22 C13         6.0023    2.4276   -0.0432 C.3       1 <0>        -0.1157
     23 C14         7.3382    1.6881    0.0444 C.3       1 <0>        -0.0297
     24 C15         8.4792    2.6356   -0.2067 C.2       1 <0>        -0.3419
     25 C16         8.3028    3.8202   -0.8512 C.2       1 <0>         0.4452
     26 N3          9.3843    4.6383   -1.0581 N.pl3     1 <0>        -0.6542
     27 C17        10.6174    4.2677   -0.6171 C.2       1 <0>         0.6587
     28 N4         10.7999    3.1264    0.0114 N.2       1 <0>        -0.6341
     29 C18         9.7743    2.2909    0.2370 C.2       1 <0>         0.5448
     30 O7          9.9610    1.2346    0.8236 O.2       1 <0>        -0.5251
     31 N5         11.6864    5.0966   -0.8318 N.pl3     1 <0>        -0.8248
     32 N6          7.0618    4.2170   -1.2943 N.pl3     1 <0>        -0.7317
     33 C19         5.9722    3.2331   -1.3493 C.3       1 <0>         0.1332
     34 H1         -0.9590    1.9215    0.0260 H         1 <0>         0.1324
     35 H2          1.1522    3.1764    0.0078 H         1 <0>         0.1188
     36 H3          3.3474   -0.4995   -0.0326 H         1 <0>         0.1247
     37 H4          1.2416   -1.7634   -0.0204 H         1 <0>         0.1295
     38 H5         -0.3974   -2.5806   -0.0078 H         1 <0>         0.3917
     39 H6         -3.2516   -2.3197   -0.5676 H         1 <0>         0.0810
     40 H7         -1.4645   -4.7448   -0.0833 H         1 <0>         0.0738
     41 H8         -3.1876   -4.8309   -0.5212 H         1 <0>         0.0857
     42 H9         -2.7197   -3.5775   -2.6090 H         1 <0>         0.0995
     43 H10        -0.9966   -3.4914   -2.1711 H         1 <0>         0.0962
     44 H11         3.5606    3.0997   -0.0161 H         1 <0>         0.3942
     45 H12         4.9299    0.7860    0.8490 H         1 <0>         0.0713
     46 H13         4.9126    0.7950   -0.9309 H         1 <0>         0.0678
     47 H14         5.8990    3.1033    0.8058 H         1 <0>         0.0854
     48 H15         7.4441    1.2512    1.0373 H         1 <0>         0.0860
     49 H16         7.3596    0.8927   -0.7006 H         1 <0>         0.0734
     50 H17        11.5610    5.9398   -1.2947 H         1 <0>         0.4091
     51 H18        12.5688    4.8404   -0.5210 H         1 <0>         0.4308
     52 H19         6.9083    5.1352   -1.5666 H         1 <0>         0.4030
     53 H20         6.1198    2.5657   -2.1983 H         1 <0>         0.0761
     54 H21         5.0155    3.7467   -1.4444 H         1 <0>         0.0923
     55 H22         9.2699    5.4834   -1.5202 H         1 <0>         0.4100
@<TRIPOS>BOND
     1    1    6 ar
     2    1    2 ar
     3    1   34 1
     4    2    3 ar
     5    2   35 1
     6    3    4 ar
     7    3   20 1
     8    4    5 ar
     9    4   36 1
    10    5    6 ar
    11    5   37 1
    12    6    7 1
    13    7    8 2
    14    7    9 am
    15    9   10 1
    16    9   38 1
    17   10   11 1
    18   10   17 1
    19   10   39 1
    20   11   12 1
    21   11   40 1
    22   11   41 1
    23   12   13 1
    24   12   42 1
    25   12   43 1
    26   13   14 2
    27   13   15 2
    28   13   16 1
    29   17   18 2
    30   17   19 1
    31   20   21 1
    32   20   44 1
    33   21   22 1
    34   21   45 1
    35   21   46 1
    36   22   33 1
    37   22   23 1
    38   22   47 1
    39   23   24 1
    40   23   48 1
    41   23   49 1
    42   24   29 1
    43   24   25 2
    44   25   26 1
    45   25   32 1
    46   26   27 1
    47   26   55 1
    48   27   28 2
    49   27   31 1
    50   28   29 1
    51   29   30 2
    52   31   50 1
    53   31   51 1
    54   32   33 1
    55   32   52 1
    56   33   53 1
    57   33   54 1
@<TRIPOS>MOLECULE
CHEMBL142806
   55    57     0     0     0
SMALL
USER_CHARGES

@<TRIPOS>ATOM
      1 C1         -0.0167    1.3794    0.0096 C.ar      1 <0>        -0.1289
      2 C2          1.1667    2.0884    0.0021 C.ar      1 <0>        -0.0645
      3 C3          2.3848    1.4070   -0.0132 C.ar      1 <0>        -0.1104
      4 C4          2.3966    0.0113   -0.0208 C.ar      1 <0>        -0.0820
      5 C5          1.2061   -0.6856   -0.0132 C.ar      1 <0>        -0.1228
      6 C6          0.0021   -0.0041    0.0020 C.ar      1 <0>        -0.0784
      7 C7         -1.2946   -0.7719    0.0103 C.3       1 <0>        -0.0772
      8 C8         -1.7472   -1.0241   -1.4293 C.3       1 <0>        -0.1092
      9 C9         -3.0637   -1.8037   -1.4209 C.3       1 <0>        -0.1051
     10 C10        -3.4659   -2.1472   -2.8560 C.3       1 <0>        -0.0331
     11 C11        -4.8674   -2.6924   -2.8912 C.2       1 <0>        -0.3418
     12 C12        -5.7522   -2.4694   -1.8825 C.2       1 <0>         0.4436
     13 N1         -7.0195   -2.9859   -1.9763 N.pl3     1 <0>        -0.6544
     14 H1         -7.6594   -2.8292   -1.2643 H         1 <0>         0.4094
     15 C13        -7.3818   -3.7178   -3.0650 C.2       1 <0>         0.6578
     16 N2         -6.5337   -3.9440   -4.0450 N.2       1 <0>        -0.6350
     17 C14        -5.2833   -3.4586   -4.0015 C.2       1 <0>         0.5436
     18 O1         -4.5073   -3.6789   -4.9202 O.2       1 <0>        -0.5263
     19 N3         -8.6509   -4.2271   -3.1419 N.pl3     1 <0>        -0.8255
     20 N4         -5.4004   -1.7421   -0.7685 N.pl3     1 <0>        -0.7319
     21 C15        -4.1686   -0.9419   -0.7946 C.3       1 <0>         0.1299
     22 C16         3.6569    2.1603   -0.0218 C.2       1 <0>         0.5428
     23 O2          3.6435    3.3757   -0.0155 O.2       1 <0>        -0.5536
     24 N5          4.8314    1.4994   -0.0366 N.am      1 <0>        -0.6749
     25 C17         6.0919    2.2459   -0.0451 C.3       1 <0>         0.0734
     26 H2          5.9814    3.1523    0.5501 H         1 <0>         0.0779
     27 C18         7.2027    1.3778    0.5494 C.3       1 <0>        -0.0826
     28 C19         6.9032    1.1060    2.0250 C.3       1 <0>        -0.1771
     29 C20         7.9973    0.2510    2.6105 C.2       1 <0>         0.4912
     30 O3          8.9302   -0.1078    1.9123 O.co2     1 <0>        -0.6972
     31 O4          7.9496   -0.0820    3.7824 O.co2     1 <0>        -0.7199
     32 C21         6.4472    2.6155   -1.4622 C.2       1 <0>         0.4982
     33 O5          7.0818    3.6322   -1.6861 O.co2     1 <0>        -0.7010
     34 O6          6.1002    1.8979   -2.3847 O.co2     1 <0>        -0.6979
     35 H3         -0.9598    1.9054    0.0260 H         1 <0>         0.1208
     36 H4          1.1508    3.1682    0.0077 H         1 <0>         0.1331
     37 H5          3.3358   -0.5219   -0.0330 H         1 <0>         0.1296
     38 H6          1.2138   -1.7656   -0.0191 H         1 <0>         0.1240
     39 H7         -1.1489   -1.7256    0.5176 H         1 <0>         0.0721
     40 H8         -2.0557   -0.1941    0.5345 H         1 <0>         0.0689
     41 H9         -1.8929   -0.0704   -1.9367 H         1 <0>         0.0708
     42 H10        -0.9861   -1.6019   -1.9536 H         1 <0>         0.0767
     43 H11        -2.9425   -2.7199   -0.8430 H         1 <0>         0.0800
     44 H12        -3.4131   -1.2484   -3.4702 H         1 <0>         0.0688
     45 H13        -2.7786   -2.8936   -3.2542 H         1 <0>         0.0823
     46 H14        -9.2829   -4.0650   -2.4242 H         1 <0>         0.4087
     47 H15        -8.9177   -4.7499   -3.9142 H         1 <0>         0.4304
     48 H16        -5.9587   -1.7579    0.0245 H         1 <0>         0.4018
     49 H17        -3.8881   -0.6627    0.2210 H         1 <0>         0.0945
     50 H18        -4.3231   -0.0457   -1.3955 H         1 <0>         0.0722
     51 H19         4.8421    0.5294   -0.0416 H         1 <0>         0.3915
     52 H20         7.2537    0.4325    0.0090 H         1 <0>         0.0604
     53 H21         8.1565    1.8981    0.4621 H         1 <0>         0.0729
     54 H22         6.8522    2.0513    2.5654 H         1 <0>         0.0526
     55 H23         5.9494    0.5857    2.1123 H         1 <0>         0.0509
@<TRIPOS>BOND
     1    1    6 ar
     2    1    2 ar
     3    1   35 1
     4    2    3 ar
     5    2   36 1
     6    3    4 ar
     7    3   22 1
     8    4    5 ar
     9    4   37 1
    10    5    6 ar
    11    5   38 1
    12    6    7 1
    13    7    8 1
    14    7   39 1
    15    7   40 1
    16    8    9 1
    17    8   41 1
    18    8   42 1
    19    9   21 1
    20    9   10 1
    21    9   43 1
    22   10   11 1
    23   10   44 1
    24   10   45 1
    25   11   17 1
    26   11   12 2
    27   12   13 1
    28   12   20 1
    29   13   14 1
    30   13   15 1
    31   15   16 2
    32   15   19 1
    33   16   17 1
    34   17   18 2
    35   19   46 1
    36   19   47 1
    37   20   21 1
    38   20   48 1
    39   21   49 1
    40   21   50 1
    41   22   23 2
    42   22   24 am
    43   24   25 1
    44   24   51 1
    45   25   26 1
    46   25   27 1
    47   25   32 1
    48   27   28 1
    49   27   52 1
    50   27   53 1
    51   28   29 1
    52   28   54 1
    53   28   55 1
    54   29   30 2
    55   29   31 1
    56   32   33 2
    57   32   34 1
