@<TRIPOS>MOLECULE
ZINC04095838
   41    42     0     0     0
SMALL
USER_CHARGES
6-(2-carboxy-4,5,6-trihydroxy-tetrahydropyran-3-yl)oxy-3,4,5-trihydroxy-tetrahydropyran-2-carboxylic acid
@<TRIPOS>ATOM
      1 C1         -1.8936    4.0710    2.8530 C.3       1 <0>         0.1279
      2 H1         -1.3417    3.1491    3.0364 H         1 <0>         0.0774
      3 C2         -2.9895    3.8141    1.8142 C.3       1 <0>         0.0676
      4 H2         -3.6421    3.0140    2.1634 H         1 <0>         0.0676
      5 C3         -2.3404    3.4036    0.4899 C.3       1 <0>         0.0144
      6 H3         -1.7906    2.4726    0.6277 H         1 <0>         0.0873
      7 O1         -1.4412    4.4294    0.0632 O.3       1 <0>        -0.3458
      8 C4         -0.3685    4.6801    0.9734 C.3       1 <0>         0.1991
      9 H4          0.2790    5.4570    0.5669 H         1 <0>         0.1333
     10 C5         -0.9384    5.1420    2.3172 C.3       1 <0>         0.1129
     11 H5         -1.4802    6.0779    2.1807 H         1 <0>         0.0815
     12 O2          0.1292    5.3379    3.2467 O.3       1 <0>        -0.5508
     13 O3          0.3861    3.4815    1.1625 O.3       1 <0>        -0.3659
     14 C6          1.1468    3.0870    0.0189 C.3       1 <0>         0.0868
     15 H6          0.6413    3.4189   -0.8880 H         1 <0>         0.0954
     16 C7          1.2864    1.5618   -0.0018 C.3       1 <0>         0.1267
     17 H7          1.8230    1.2556   -0.8998 H         1 <0>         0.0746
     18 C8          2.0660    1.1145    1.2385 C.3       1 <0>         0.0621
     19 H8          1.5044    1.3755    2.1355 H         1 <0>         0.0927
     20 C9          3.4235    1.8219    1.2610 C.3       1 <0>         0.2240
     21 H9          3.9653    1.5402    2.1638 H         1 <0>         0.0905
     22 O4          3.2222    3.2367    1.2480 O.3       1 <0>        -0.3541
     23 C10         2.5398    3.7183    0.0884 C.3       1 <0>         0.0304
     24 H10         3.1055    3.4501   -0.8039 H         1 <0>         0.0723
     25 C11         2.4087    5.2174    0.1688 C.2       1 <0>         0.4779
     26 O5          2.7723    5.8033    1.1610 O.co2     1 <0>        -0.6131
     27 O6          4.1802    1.4377    0.1113 O.3       1 <0>        -0.5745
     28 O7          2.2639   -0.3000    1.1938 O.3       1 <0>        -0.5577
     29 O8         -0.0110    0.9628    0.0073 O.3       1 <0>        -0.5396
     30 C12        -3.4094    3.2061   -0.5539 C.2       1 <0>         0.4762
     31 O9         -3.4553    3.9343   -1.5169 O.co2     1 <0>        -0.6110
     32 O10        -3.7541    5.0060    1.6220 O.3       1 <0>        -0.5538
     33 O11        -2.4850    4.5248    4.0722 O.3       1 <0>        -0.5512
     34 H11         0.7760    6.0007    2.9686 H         1 <0>         0.3848
     35 H12         5.0538    1.8489    0.0600 H         1 <0>         0.3776
     36 H13         2.7521   -0.6529    1.9503 H         1 <0>         0.3730
     37 H14         0.0021   -0.0041    0.0020 H         1 <0>         0.3732
     38 H15        -4.4676    4.9156    0.9755 H         1 <0>         0.3789
     39 H16        -3.1025    3.8947    4.4681 H         1 <0>         0.3663
     40 O12         1.8881    5.9018   -0.8618 O.co2     1 <0>        -0.7442
     41 O13        -4.3106    2.2213   -0.4136 O.co2     1 <0>        -0.7706
@<TRIPOS>BOND
     1    1    2 1
     2    1   10 1
     3    1    3 1
     4    1   33 1
     5    3    4 1
     6    3    5 1
     7    3   32 1
     8    5    6 1
     9    5    7 1
    10    5   30 1
    11    7    8 1
    12    8    9 1
    13    8   10 1
    14    8   13 1
    15   10   11 1
    16   10   12 1
    17   12   34 1
    18   13   14 1
    19   14   15 1
    20   14   23 1
    21   14   16 1
    22   16   17 1
    23   16   18 1
    24   16   29 1
    25   18   19 1
    26   18   20 1
    27   18   28 1
    28   20   21 1
    29   20   22 1
    30   20   27 1
    31   22   23 1
    32   23   24 1
    33   23   25 1
    34   25   26 2
    35   25   40 1
    36   27   35 1
    37   28   36 1
    38   29   37 1
    39   30   31 2
    40   30   41 1
    41   32   38 1
    42   33   39 1
@<TRIPOS>MOLECULE
ZINC13522515
   34    36     0     0     0
SMALL
USER_CHARGES
[(2R,3S,5R)-5-(6-aminopurin-9-yl)-2-(hydroxymethyl)tetrahydrofuran-3-yl] dihydrogen phosphate
@<TRIPOS>ATOM
      1 C1         -3.5268    1.6132    0.0280 C.ar      1 <0>         0.3348
      2 N1         -2.3695    0.9769    0.0186 N.ar      1 <0>        -0.5529
      3 C2         -1.2188    1.6414    0.0168 C.ar      1 <0>         0.4457
      4 C3         -1.2568    3.0463    0.0305 C.ar      1 <0>        -0.0949
      5 C4         -2.5128    3.6758    0.0349 C.ar      1 <0>         0.2950
      6 N2         -3.6108    2.9267    0.0360 N.ar      1 <0>        -0.5279
      7 N3         -2.2600    5.0242    0.0411 N.pl3     1 <0>        -0.4624
      8 C5         -0.9066    5.1863    0.0351 C.2       1 <0>         0.2930
      9 N4         -0.3198    4.0247    0.0257 N.2       1 <0>        -0.4830
     10 C6         -3.2611    6.0938    0.0528 C.3       1 <0>         0.3033
     11 H1         -4.1231    5.8009   -0.5466 H         1 <0>         0.1115
     12 C7         -3.7032    6.3819    1.5006 C.3       1 <0>        -0.1750
     13 C8         -3.3681    7.8788    1.7089 C.3       1 <0>         0.1447
     14 H2         -2.4094    7.9962    2.2142 H         1 <0>         0.0697
     15 C9         -3.2935    8.4007    0.2514 C.3       1 <0>         0.0715
     16 H3         -4.2919    8.6081   -0.1336 H         1 <0>         0.0944
     17 O1         -2.6885    7.3049   -0.4682 O.3       1 <0>        -0.3683
     18 C10        -2.4164    9.6518    0.1713 C.3       1 <0>         0.0824
     19 O2         -2.4581   10.1786   -1.1564 O.3       1 <0>        -0.5756
     20 O3         -4.4081    8.5381    2.4340 O.3       1 <0>        -0.7353
     21 P1         -4.1586    9.2917    3.8348 P.3       1 <0>         2.1190
     22 O4         -3.0837   10.2956    3.6703 O.2       1 <0>        -1.1564
     23 N5         -0.0111    0.9658    0.0074 N.pl3     1 <0>        -0.7544
     24 H4         -4.4384    1.0341    0.0295 H         1 <0>         0.2058
     25 H5         -0.3964    6.1383    0.0374 H         1 <0>         0.2262
     26 H6         -4.7738    6.2113    1.6137 H         1 <0>         0.1053
     27 H7         -3.1414    5.7641    2.2012 H         1 <0>         0.0857
     28 H8         -2.7871   10.4008    0.8711 H         1 <0>         0.0930
     29 H9         -1.3891    9.3924    0.4272 H         1 <0>         0.0545
     30 H10        -1.9233   10.9746   -1.2807 H         1 <0>         0.3742
     31 H11         0.0554    0.3907    0.8227 H         1 <0>         0.3619
     32 H12         0.8223    1.4622    0.0021 H         1 <0>         0.3798
     33 O5         -5.5139   10.0274    4.2972 O.3       1 <0>        -1.1722
     34 O6         -3.7231    8.2173    4.9520 O.3       1 <0>        -1.1932
@<TRIPOS>BOND
     1    1    6 ar
     2    1    2 ar
     3    1   24 1
     4    2    3 ar
     5    3    4 ar
     6    3   23 1
     7    4    9 1
     8    4    5 ar
     9    5    6 ar
    10    5    7 1
    11    7    8 1
    12    7   10 1
    13    8    9 2
    14    8   25 1
    15   10   11 1
    16   10   17 1
    17   10   12 1
    18   12   13 1
    19   12   26 1
    20   12   27 1
    21   13   14 1
    22   13   15 1
    23   13   20 1
    24   15   16 1
    25   15   17 1
    26   15   18 1
    27   18   19 1
    28   18   28 1
    29   18   29 1
    30   19   30 1
    31   20   21 1
    32   21   22 2
    33   21   33 1
    34   21   34 1
    35   23   31 1
    36   23   32 1
@<TRIPOS>MOLECULE
ZINC34920969
   35    37     0     0     0
SMALL
USER_CHARGES

@<TRIPOS>ATOM
      1 C1         -0.0159    1.3194    0.0093 C.ar      1 <0>         0.2424
      2 C2          1.1899    2.0033    0.0015 C.ar      1 <0>        -0.1097
      3 C3          2.3893    1.2644   -0.0140 C.ar      1 <0>         0.3381
      4 N1          3.3967    2.1574   -0.0195 N.2       1 <0>        -0.5070
      5 C4          2.9141    3.3688   -0.0088 C.2       1 <0>         0.3285
      6 N2          1.5624    3.3329    0.0043 N.pl3     1 <0>        -0.4620
      7 C5          0.6618    4.4883    0.0188 C.3       1 <0>         0.3081
      8 H1         -0.2311    4.2786   -0.5701 H         1 <0>         0.1212
      9 C6          0.2733    4.8491    1.4748 C.3       1 <0>         0.0324
     10 H2          1.1160    4.7103    2.1521 H         1 <0>         0.0897
     11 C7         -0.0797    6.3537    1.3214 C.3       1 <0>         0.0497
     12 H3          0.0911    6.8893    2.2552 H         1 <0>         0.0907
     13 C8          0.9145    6.8143    0.2339 C.3       1 <0>         0.0875
     14 H4          1.7767    7.2918    0.6995 H         1 <0>         0.1100
     15 O1          1.3339    5.6508   -0.4913 O.3       1 <0>        -0.3372
     16 C9          0.2267    7.7975   -0.7153 C.3       1 <0>         0.1337
     17 O2          1.1824    8.3077   -1.6472 O.3       1 <0>        -0.7543
     18 P1          0.8057    9.3706   -2.7962 P.3       1 <0>         2.1287
     19 O3         -0.3743    8.8093   -3.6604 O.2       1 <0>        -1.1877
     20 O4          0.3714   10.7228   -2.1347 O.3       1 <0>        -1.1883
     21 O5          2.0535    9.6142   -3.7117 O.3       1 <0>        -1.1672
     22 O6         -1.4302    6.5172    0.8837 O.3       1 <0>        -0.5252
     23 O7         -0.8606    4.0946    1.9073 O.3       1 <0>        -0.5421
     24 N3          2.3205   -0.0680   -0.0202 N.ar      1 <0>        -0.5466
     25 C10         1.1469   -0.6756   -0.0120 C.ar      1 <0>         0.5628
     26 N4          0.0021   -0.0041    0.0020 N.ar      1 <0>        -0.5572
     27 N5          1.1103   -2.0611   -0.0193 N.pl3     1 <0>        -0.8266
     28 H5         -0.9527    1.8565    0.0256 H         1 <0>         0.1727
     29 H6          3.5083    4.2706   -0.0106 H         1 <0>         0.2293
     30 H7         -0.5693    7.2847   -1.2552 H         1 <0>         0.0521
     31 H8         -0.1963    8.6216   -0.1408 H         1 <0>         0.0513
     32 H9         -2.0881    6.1626    1.4973 H         1 <0>         0.3745
     33 H10        -1.1394    4.2877    2.8129 H         1 <0>         0.3842
     34 H11         1.9372   -2.5681   -0.0302 H         1 <0>         0.4115
     35 H12         0.2578   -2.5238   -0.0134 H         1 <0>         0.4121
@<TRIPOS>BOND
     1    1   26 ar
     2    1    2 ar
     3    1   28 1
     4    2    6 1
     5    2    3 ar
     6    3    4 1
     7    3   24 ar
     8    4    5 2
     9    5    6 1
    10    5   29 1
    11    6    7 1
    12    7    8 1
    13    7   15 1
    14    7    9 1
    15    9   10 1
    16    9   11 1
    17    9   23 1
    18   11   12 1
    19   11   13 1
    20   11   22 1
    21   13   14 1
    22   13   15 1
    23   13   16 1
    24   16   17 1
    25   16   30 1
    26   16   31 1
    27   17   18 1
    28   18   19 2
    29   18   20 1
    30   18   21 1
    31   22   32 1
    32   23   33 1
    33   24   25 ar
    34   25   26 ar
    35   25   27 1
    36   27   34 1
    37   27   35 1
@<TRIPOS>MOLECULE
ZINC40384514
   28    29     0     0     0
SMALL
USER_CHARGES

@<TRIPOS>ATOM
      1 C1         -0.0188    1.3749   -0.0377 C.ar      1 <0>        -0.1245
      2 C2          1.1666    2.0866    0.0007 C.ar      1 <0>        -0.0877
      3 C3          2.3756    1.4178    0.0014 C.ar      1 <0>        -0.0454
      4 C4          2.3991    0.0282   -0.0365 C.ar      1 <0>         0.2729
      5 C5          1.2069   -0.6822   -0.0749 C.ar      1 <0>        -0.1533
      6 C6          0.0016   -0.0069   -0.0754 C.ar      1 <0>        -0.6115
      7 S1         -1.5118   -0.9081   -0.1236 S.o2      1 <0>         2.6948
      8 O1         -1.2315   -2.2005    0.3963 O.2       1 <0>        -0.9647
      9 O2         -2.5066   -0.0614    0.4355 O.2       1 <0>        -0.9720
     10 N1         -1.9079   -1.1150   -1.7181 N.pl3     1 <0>        -1.2492
     11 N2          3.6200   -0.6519   -0.0363 N.2       1 <0>        -1.0743
     12 S2          3.6477   -2.3036    0.0796 S.o2      1 <0>         2.6351
     13 O3          3.0606   -2.6328    1.3311 O.2       1 <0>        -1.0224
     14 O4          3.1475   -2.8056   -1.1521 O.2       1 <0>        -1.0318
     15 C7          5.3384   -2.7910    0.1726 C.2       1 <0>        -0.7537
     16 C8          6.1419   -3.0820   -0.8765 C.2       1 <0>         0.1697
     17 N3          7.3560   -3.4091   -0.3864 N.pl3     1 <0>        -0.4753
     18 H1          8.1327   -3.6634   -0.9089 H         1 <0>         0.4375
     19 N4          7.2965   -3.3161    1.0101 N.2       1 <0>        -0.3056
     20 C9          6.0887   -2.9398    1.3436 C.2       1 <0>         0.1353
     21 Cl1         3.8632    2.3114    0.0489 Cl        1 <0>        -0.0757
     22 H2         -0.9627    1.8999   -0.0336 H         1 <0>         0.1321
     23 H3          1.1471    3.1660    0.0297 H         1 <0>         0.1265
     24 H4          1.2216   -1.7617   -0.1047 H         1 <0>         0.1247
     25 H5         -2.4090   -1.8977   -1.9958 H         1 <0>         0.4166
     26 H6         -1.6387   -0.4534   -2.3745 H         1 <0>         0.4166
     27 H7          5.8618   -3.0570   -1.9192 H         1 <0>         0.1905
     28 H8          5.7317   -2.7754    2.3496 H         1 <0>         0.1947
@<TRIPOS>BOND
     1    1    6 ar
     2    1    2 ar
     3    1   22 1
     4    2    3 ar
     5    2   23 1
     6    3    4 ar
     7    3   21 1
     8    4    5 ar
     9    4   11 1
    10    5    6 ar
    11    5   24 1
    12    6    7 1
    13    7    8 2
    14    7    9 2
    15    7   10 1
    16   10   25 1
    17   10   26 1
    18   11   12 1
    19   12   13 2
    20   12   14 2
    21   12   15 1
    22   15   20 1
    23   15   16 2
    24   16   17 1
    25   16   27 1
    26   17   18 1
    27   17   19 1
    28   19   20 2
    29   20   28 1
@<TRIPOS>MOLECULE
ZINC61882467
   29    30     0     0     0
SMALL
USER_CHARGES

@<TRIPOS>ATOM
      1 C1          0.1026    1.2378    0.3593 C.3       1 <0>        -0.1581
      2 C2         -0.0571   -0.2756    0.2017 C.3       1 <0>         0.2697
      3 H1          0.4697   -0.6053   -0.6938 H         1 <0>         0.0850
      4 C3          0.5200   -0.9700    1.4083 C.2       1 <0>         0.0478
      5 N1          1.6696   -1.6262    1.4676 N.2       1 <0>        -0.3802
      6 N2          1.8022   -2.0722    2.6700 N.2       1 <0>        -0.1956
      7 N3          0.7770   -1.7184    3.3640 N.2       1 <0>        -0.1955
      8 N4         -0.0219   -1.0371    2.6156 N.2       1 <0>        -0.3737
      9 N5         -1.4792   -0.6067    0.0813 N.pl3     1 <0>        -1.0893
     10 S1         -2.1628   -0.7900   -1.4158 S.o2      1 <0>         2.6867
     11 O1         -3.5238   -1.1376   -1.2009 O.2       1 <0>        -0.9441
     12 O2         -1.7778    0.3445   -2.1798 O.2       1 <0>        -0.9508
     13 C4         -1.3991   -2.1876   -2.1696 C.ar      1 <0>        -0.5929
     14 C5         -0.6383   -2.0258   -3.3130 C.ar      1 <0>        -0.0665
     15 C6         -0.0365   -3.1206   -3.9079 C.ar      1 <0>         0.0073
     16 C7         -0.1943   -4.3803   -3.3603 C.ar      1 <0>        -0.1350
     17 C8         -0.9576   -4.5458   -2.2124 C.ar      1 <0>         0.2424
     18 C9         -1.5564   -3.4429   -1.6145 C.ar      1 <0>        -0.0761
     19 Br1        -2.5907   -3.6615   -0.0466 Br        1 <0>        -0.0083
     20 N6         -1.1196   -5.8175   -1.6567 N.pl3     1 <0>        -0.8623
     21 Cl1         0.9172   -2.9124   -5.3435 Cl        1 <0>        -0.0536
     22 H2          1.1606    1.4841    0.4488 H         1 <0>         0.0652
     23 H3         -0.3148    1.7401   -0.5134 H         1 <0>         0.0675
     24 H4         -0.4242    1.5674    1.2548 H         1 <0>         0.0651
     25 H5         -2.0202   -0.7185    0.8786 H         1 <0>         0.4271
     26 H6         -0.5138   -1.0428   -3.7428 H         1 <0>         0.1596
     27 H7          0.2752   -5.2346   -3.8251 H         1 <0>         0.1467
     28 H8         -0.6985   -6.5859   -2.0728 H         1 <0>         0.4051
     29 H9         -1.6531   -5.9319   -0.8547 H         1 <0>         0.4069
@<TRIPOS>BOND
     1    1    2 1
     2    1   22 1
     3    1   23 1
     4    1   24 1
     5    2    3 1
     6    2    9 1
     7    2    4 1
     8    4    5 2
     9    4    8 1
    10    5    6 1
    11    6    7 2
    12    7    8 1
    13    9   10 1
    14    9   25 1
    15   10   11 2
    16   10   12 2
    17   10   13 1
    18   13   18 ar
    19   13   14 ar
    20   14   15 ar
    21   14   26 1
    22   15   16 ar
    23   15   21 1
    24   16   17 ar
    25   16   27 1
    26   17   18 ar
    27   17   20 1
    28   18   19 1
    29   20   28 1
    30   20   29 1
@<TRIPOS>MOLECULE
ZINC04236999
   63    65     0     0     0
SMALL
USER_CHARGES
2-[3,3-dimethylbutanoylamino-hydroxy-(hydroxymethyl)-dimethyl-BLAHyl]acetic acid
@<TRIPOS>ATOM
      1 C1          2.0547    1.0800    1.3217 C.3       1 <0>        -0.1663
      2 C2          1.3650    1.4975    0.0213 C.3       1 <0>        -0.0464
      3 C3          1.2397    3.0236   -0.0369 C.3       1 <0>        -0.1117
      4 C4          2.6228    3.6710   -0.0530 C.3       1 <0>        -0.1543
      5 C5          3.3766    3.1916   -1.2971 C.3       1 <0>         0.1199
      6 H1          2.8094    3.4514   -2.1909 H         1 <0>         0.0515
      7 C6          3.5439    1.6755   -1.2150 C.3       1 <0>        -0.0401
      8 C7          2.1745    0.9902   -1.1741 C.3       1 <0>        -0.0559
      9 H2          1.6374    1.1755   -2.1043 H         1 <0>         0.0848
     10 C8          2.4263   -0.5208   -1.0030 C.3       1 <0>        -0.0238
     11 C9          1.1524   -1.1828   -0.6125 C.2       1 <0>        -0.2589
     12 C10         0.0141   -0.5937   -0.1641 C.2       1 <0>         0.1298
     13 N1         -0.9936   -1.4148    0.1225 N.2       1 <0>        -0.4721
     14 C11        -0.8976   -2.7203   -0.0201 C.2       1 <0>         0.2782
     15 S1          0.7285   -2.9040   -0.6069 S.3       1 <0>         0.1025
     16 N2         -1.8509   -3.6996    0.2337 N.am      1 <0>        -0.6081
     17 C12        -1.5564   -4.9976    0.0220 C.2       1 <0>         0.5143
     18 O1         -0.4597   -5.3113   -0.3900 O.2       1 <0>        -0.5008
     19 C13        -2.5899   -6.0593    0.2971 C.3       1 <0>        -0.1265
     20 C14        -2.0046   -7.4361   -0.0235 C.3       1 <0>        -0.0506
     21 C15        -0.7740   -7.6834    0.8513 C.3       1 <0>        -0.1552
     22 C16        -3.0539   -8.5140    0.2559 C.3       1 <0>        -0.1417
     23 C17        -1.6007   -7.4877   -1.4983 C.3       1 <0>        -0.1552
     24 C18        -0.0554    0.9185   -0.0164 C.3       1 <0>         0.0137
     25 H3         -0.5974    1.3413   -0.8623 H         1 <0>         0.0867
     26 C19        -0.7839    1.2706    1.2822 C.3       1 <0>        -0.1480
     27 C20        -2.2332    0.8739    1.1686 C.2       1 <0>         0.4664
     28 O2         -2.6417    0.3619    0.1532 O.co2     1 <0>        -0.6102
     29 C21         4.3192    1.1850   -2.4394 C.3       1 <0>        -0.1353
     30 C22         4.3262    1.3196    0.0509 C.3       1 <0>         0.0580
     31 O3          5.6599    1.8212   -0.0566 O.3       1 <0>        -0.5536
     32 O4          4.6622    3.8134   -1.3478 O.3       1 <0>        -0.5432
     33 H4          2.7462    0.2619    1.1198 H         1 <0>         0.0639
     34 H5          2.6045    1.9281    1.7299 H         1 <0>         0.0619
     35 H6          1.3048    0.7525    2.0418 H         1 <0>         0.0677
     36 H7          0.6986    3.3067   -0.9398 H         1 <0>         0.0654
     37 H8          0.6879    3.3736    0.8355 H         1 <0>         0.0751
     38 H9          2.5182    4.7555   -0.0844 H         1 <0>         0.0631
     39 H10         3.1727    3.3805    0.8421 H         1 <0>         0.0757
     40 H11         3.1735   -0.6803   -0.2256 H         1 <0>         0.0850
     41 H12         2.7827   -0.9414   -1.9433 H         1 <0>         0.0765
     42 H13        -2.7280   -3.4487    0.5632 H         1 <0>         0.4269
     43 H14        -2.8777   -6.0226    1.3478 H         1 <0>         0.1016
     44 H15        -3.4667   -5.8831   -0.3261 H         1 <0>         0.1016
     45 H16        -1.0618   -7.6467    1.9020 H         1 <0>         0.0473
     46 H17        -0.3570   -8.6643    0.6229 H         1 <0>         0.0517
     47 H18        -0.0265   -6.9155    0.6523 H         1 <0>         0.0834
     48 H19        -3.9306   -8.3378   -0.3674 H         1 <0>         0.0555
     49 H20        -2.6370   -9.4949    0.0275 H         1 <0>         0.0581
     50 H21        -3.3417   -8.4773    1.3065 H         1 <0>         0.0556
     51 H22        -0.8531   -6.7198   -1.6973 H         1 <0>         0.0835
     52 H23        -1.1837   -8.4685   -1.7267 H         1 <0>         0.0517
     53 H24        -2.4774   -7.3115   -2.1215 H         1 <0>         0.0472
     54 H25        -0.3246    0.7352    2.1131 H         1 <0>         0.0628
     55 H26        -0.7137    2.3440    1.4585 H         1 <0>         0.0641
     56 H27         3.7621    1.4291   -3.3440 H         1 <0>         0.0481
     57 H28         5.2942    1.6712   -2.4709 H         1 <0>         0.0724
     58 H29         4.4536    0.1051   -2.3758 H         1 <0>         0.0519
     59 H30         3.8385    1.7669    0.9171 H         1 <0>         0.0742
     60 H31         4.3537    0.2364    0.1685 H         1 <0>         0.0449
     61 H32         6.2145    1.6317    0.7125 H         1 <0>         0.3643
     62 H33         4.6307    4.7790   -1.3891 H         1 <0>         0.3647
     63 O5         -3.0705    1.0892    2.1954 O.co2     1 <0>        -0.7937
@<TRIPOS>BOND
     1    1    2 1
     2    1   33 1
     3    1   34 1
     4    1   35 1
     5    2    8 1
     6    2   24 1
     7    2    3 1
     8    3    4 1
     9    3   36 1
    10    3   37 1
    11    4    5 1
    12    4   38 1
    13    4   39 1
    14    5    6 1
    15    5    7 1
    16    5   32 1
    17    7    8 1
    18    7   29 1
    19    7   30 1
    20    8    9 1
    21    8   10 1
    22   10   11 1
    23   10   40 1
    24   10   41 1
    25   11   15 1
    26   11   12 2
    27   12   13 1
    28   12   24 1
    29   13   14 2
    30   14   15 1
    31   14   16 1
    32   16   17 am
    33   16   42 1
    34   17   18 2
    35   17   19 1
    36   19   20 1
    37   19   43 1
    38   19   44 1
    39   20   21 1
    40   20   22 1
    41   20   23 1
    42   21   45 1
    43   21   46 1
    44   21   47 1
    45   22   48 1
    46   22   49 1
    47   22   50 1
    48   23   51 1
    49   23   52 1
    50   23   53 1
    51   24   25 1
    52   24   26 1
    53   26   27 1
    54   26   54 1
    55   26   55 1
    56   27   28 2
    57   27   63 1
    58   29   56 1
    59   29   57 1
    60   29   58 1
    61   30   31 1
    62   30   59 1
    63   30   60 1
    64   31   61 1
    65   32   62 1
@<TRIPOS>MOLECULE
ZINC19782323
   41    42     0     0     0
SMALL
USER_CHARGES
methyl (3R,4R)-6-(2-amino-2-oxo-ethyl)sulfanyl-5-cyano-4-(o-tolyl)-2-oxo-3,4-dihydro-1H-pyridine-3-carboxylate
@<TRIPOS>ATOM
      1 C1          1.8442    1.5678   -2.6571 C.3       1 <0>        -0.1135
      2 C2          1.9682    0.1404   -2.1900 C.ar      1 <0>        -0.0591
      3 C3          1.8003   -0.8978   -3.0876 C.ar      1 <0>        -0.1259
      4 C4          1.9139   -2.2069   -2.6592 C.ar      1 <0>        -0.1337
      5 C5          2.1964   -2.4783   -1.3333 C.ar      1 <0>        -0.1289
      6 C6          2.3695   -1.4404   -0.4371 C.ar      1 <0>        -0.1205
      7 C7          2.2501   -0.1310   -0.8645 C.ar      1 <0>        -0.0376
      8 C8          2.4336    1.0006    0.1138 C.3       1 <0>         0.0902
      9 H1          2.9435    1.8342   -0.3913 H         1 <0>         0.0775
     10 C9          1.0672    1.4523    0.6326 C.2       1 <0>        -0.5096
     11 C10         1.2549    2.3546    1.8248 C.2       1 <0>         0.5664
     12 O1          0.5132    3.3000    1.9878 O.3       1 <0>        -0.5481
     13 N1          2.2399    2.1182    2.7088 N.pl3     1 <0>        -0.6783
     14 C11         3.1614    1.1175    2.4905 C.2       1 <0>         0.1815
     15 C12         3.2817    0.5332    1.2685 C.2       1 <0>        -0.1531
     16 C13         4.2197   -0.5319    1.0777 C.1       1 <0>         0.2778
     17 N2          4.9639   -1.3767    0.9263 N.1       1 <0>        -0.4562
     18 S1          4.1987    0.5879    3.8127 S.3       1 <0>        -0.0209
     19 C14         3.6077    1.6775    5.1316 C.3       1 <0>        -0.1724
     20 C15         4.3749    1.3955    6.3977 C.2       1 <0>         0.5412
     21 O2          5.2363    0.5418    6.4074 O.2       1 <0>        -0.5300
     22 N3          4.1036    2.0918    7.5193 N.am      1 <0>        -0.8726
     23 C16         0.2601    0.2460    1.0380 C.2       1 <0>         0.5144
     24 O3          0.3773   -0.2137    2.1492 O.2       1 <0>        -0.5793
     25 O4         -0.5849   -0.3211    0.1628 O.3       1 <0>        -0.3443
     26 C17        -1.3252   -1.4836    0.6198 C.3       1 <0>         0.0331
     27 H2          1.6190    1.5830   -3.7337 H         1 <0>         0.0479
     28 H3          2.7906    2.0974   -2.4729 H         1 <0>         0.0603
     29 H4          1.0325    2.0648   -2.1056 H         1 <0>         0.1017
     30 H5          1.5799   -0.6857   -4.1234 H         1 <0>         0.1133
     31 H6          1.7824   -3.0179   -3.3602 H         1 <0>         0.1089
     32 H7          2.2856   -3.5013   -0.9986 H         1 <0>         0.1056
     33 H8          2.5942   -1.6523    0.5978 H         1 <0>         0.1107
     34 H9          2.3180    2.7276    3.6212 H         1 <0>         0.3871
     35 H10         3.7598    2.7262    4.8365 H         1 <0>         0.1206
     36 H11         2.5364    1.4968    5.3040 H         1 <0>         0.1236
     37 H12         4.6636    1.8860    8.4434 H         1 <0>         0.4263
     38 H13         3.3222    2.8659    7.5106 H         1 <0>         0.4233
     39 H14        -1.9755   -1.8458   -0.1901 H         1 <0>         0.0832
     40 H15        -1.9407   -1.2080    1.4888 H         1 <0>         0.0448
     41 H16        -0.6202   -2.2776    0.9069 H         1 <0>         0.0448
@<TRIPOS>BOND
     1    1    2 1
     2    1   27 1
     3    1   28 1
     4    1   29 1
     5    2    7 ar
     6    2    3 ar
     7    3    4 ar
     8    3   30 1
     9    4    5 ar
    10    4   31 1
    11    5    6 ar
    12    5   32 1
    13    6    7 ar
    14    6   33 1
    15    7    8 1
    16    8    9 1
    17    8   15 1
    18    8   10 1
    19   10   11 2
    20   10   23 1
    21   11   12 1
    22   11   13 1
    23   13   14 1
    24   13   34 1
    25   14   15 2
    26   14   18 1
    27   15   16 1
    28   16   17 3
    29   18   19 1
    30   19   20 1
    31   19   35 1
    32   19   36 1
    33   20   21 2
    34   20   22 am
    35   22   37 1
    36   22   38 1
    37   23   24 2
    38   23   25 1
    39   25   26 1
    40   26   39 1
    41   26   40 1
    42   26   41 1
@<TRIPOS>MOLECULE
ZINC40358534
   47    48     0     0     0
SMALL
USER_CHARGES

@<TRIPOS>ATOM
      1 C1          0.0137    1.4904    0.0143 C.3       1 <0>        -0.1444
      2 C2          0.0200   -0.0395    0.0016 C.3       1 <0>        -0.0847
      3 C3          0.7480   -0.5569    1.2439 C.3       1 <0>        -0.1479
      4 C4         -1.4204   -0.5555    0.0027 C.3       1 <0>        -0.1559
      5 C5         -1.4165   -2.0563   -0.1336 C.2       1 <0>         0.4214
      6 O1         -0.3732   -2.6453   -0.3283 O.2       1 <0>        -0.5012
      7 C6         -2.6291   -2.7789   -0.0345 C.2       1 <0>        -0.5014
      8 C7         -2.7690   -4.1276   -0.0295 C.2       1 <0>         0.2871
      9 C8         -4.2045   -4.4652    0.0904 C.2       1 <0>         0.5050
     10 O2         -4.6553   -5.5928    0.1228 O.2       1 <0>        -0.5335
     11 N1         -4.9367   -3.3387    0.1583 N.am      1 <0>        -0.6014
     12 C9         -4.0174   -2.1967    0.0928 C.3       1 <0>         0.2592
     13 H1         -4.0917   -1.6004    1.0023 H         1 <0>         0.0696
     14 C10        -4.3356   -1.3481   -1.1112 C.ar      1 <0>        -0.1105
     15 C11        -3.6149   -1.5091   -2.2793 C.ar      1 <0>        -0.0553
     16 C12        -3.9042   -0.7327   -3.3848 C.ar      1 <0>        -0.1563
     17 C13        -4.9199    0.2113   -3.3246 C.ar      1 <0>         0.1119
     18 C14        -5.6442    0.3748   -2.1541 C.ar      1 <0>        -0.1771
     19 C15        -5.3557   -0.4096   -1.0478 C.ar      1 <0>         0.1237
     20 O3         -6.0680   -0.2559    0.0993 O.3       1 <0>        -0.4929
     21 O4         -5.2037    0.9751   -4.4122 O.3       1 <0>        -0.5003
     22 C16        -6.3947   -3.2650    0.2818 C.3       1 <0>         0.1391
     23 C17        -6.7807   -3.2463    1.7622 C.3       1 <0>        -0.1328
     24 C18        -8.3033   -3.1693    1.8912 C.3       1 <0>         0.0816
     25 O5         -8.6639   -3.1519    3.2739 O.3       1 <0>        -0.5745
     26 O6         -1.7585   -5.0209   -0.1198 O.3       1 <0>        -0.6016
     27 H2          1.0399    1.8580    0.0136 H         1 <0>         0.0489
     28 H3         -0.5049    1.8590   -0.8707 H         1 <0>         0.0494
     29 H4         -0.4983    1.8442    0.9092 H         1 <0>         0.0493
     30 H5          0.5320   -0.3934   -0.8932 H         1 <0>         0.0723
     31 H6          0.7525   -1.6468    1.2349 H         1 <0>         0.0741
     32 H7          1.7741   -0.1893    1.2432 H         1 <0>         0.0430
     33 H8          0.2360   -0.2031    2.1388 H         1 <0>         0.0428
     34 H9         -1.9054   -0.2769    0.9382 H         1 <0>         0.0731
     35 H10        -1.9643   -0.1161   -0.8335 H         1 <0>         0.0770
     36 H11        -2.8240   -2.2429   -2.3279 H         1 <0>         0.1416
     37 H12        -3.3394   -0.8602   -4.2964 H         1 <0>         0.1278
     38 H13        -6.4349    1.1088   -2.1054 H         1 <0>         0.1288
     39 H14        -5.6572    0.3401    0.7405 H         1 <0>         0.3877
     40 H15        -5.8662    0.5894   -5.0017 H         1 <0>         0.3873
     41 H16        -6.7545   -2.3553   -0.1990 H         1 <0>         0.0885
     42 H17        -6.8445   -4.1330   -0.2001 H         1 <0>         0.0719
     43 H18        -6.4209   -4.1560    2.2430 H         1 <0>         0.0692
     44 H19        -6.3309   -2.3783    2.2441 H         1 <0>         0.0733
     45 H20        -8.6632   -2.2597    1.4104 H         1 <0>         0.0480
     46 H21        -8.7532   -4.0374    1.4093 H         1 <0>         0.0436
     47 H22        -9.6168   -3.1038    3.4313 H         1 <0>         0.3754
@<TRIPOS>BOND
     1    1    2 1
     2    1   27 1
     3    1   28 1
     4    1   29 1
     5    2    3 1
     6    2    4 1
     7    2   30 1
     8    3   31 1
     9    3   32 1
    10    3   33 1
    11    4    5 1
    12    4   34 1
    13    4   35 1
    14    5    6 2
    15    5    7 1
    16    7   12 1
    17    7    8 2
    18    8    9 1
    19    8   26 1
    20    9   10 2
    21    9   11 am
    22   11   12 1
    23   11   22 1
    24   12   13 1
    25   12   14 1
    26   14   19 ar
    27   14   15 ar
    28   15   16 ar
    29   15   36 1
    30   16   17 ar
    31   16   37 1
    32   17   18 ar
    33   17   21 1
    34   18   19 ar
    35   18   38 1
    36   19   20 1
    37   20   39 1
    38   21   40 1
    39   22   23 1
    40   22   41 1
    41   22   42 1
    42   23   24 1
    43   23   43 1
    44   23   44 1
    45   24   25 1
    46   24   45 1
    47   24   46 1
    48   25   47 1
@<TRIPOS>MOLECULE
ZINC27311170
   45    46     0     0     0
SMALL
USER_CHARGES

@<TRIPOS>ATOM
      1 C1         -1.4257    3.0217   -1.0485 C.3       1 <0>        -0.1200
      2 C2         -0.9535    1.6325   -0.7045 C.2       1 <0>        -0.1431
      3 C3         -0.8118    1.2806    0.5494 C.2       1 <0>        -0.1740
      4 C4         -0.6444    0.6482   -1.8029 C.3       1 <0>         0.1602
      5 N1         -1.8780   -0.0253   -2.2165 N.pl3     1 <0>        -0.7028
      6 C5         -1.8435   -0.9686   -3.2079 C.2       1 <0>         0.4369
      7 C6         -3.0162   -1.6088   -3.6011 C.2       1 <0>        -0.3254
      8 C7         -2.9806   -2.5803   -4.6222 C.2       1 <0>         0.4308
      9 O1         -1.9106   -2.9457   -5.0793 O.2       1 <0>        -0.4177
     10 C8         -4.2406   -3.1563   -5.1388 C.ar      1 <0>        -0.1501
     11 C9         -5.4335   -2.4326   -5.0377 C.ar      1 <0>        -0.0517
     12 C10        -6.6098   -2.9640   -5.5166 C.ar      1 <0>        -0.1592
     13 C11        -6.6207   -4.2229   -6.1038 C.ar      1 <0>         0.1794
     14 C12        -5.4297   -4.9571   -6.2107 C.ar      1 <0>        -0.1843
     15 C13        -4.2385   -4.4163   -5.7310 C.ar      1 <0>        -0.0263
     16 C14        -5.4378   -6.2949   -6.8335 C.2       1 <0>         0.5680
     17 O2         -6.4778   -6.7629   -7.2551 O.2       1 <0>        -0.5324
     18 N2         -4.2924   -6.9980   -6.9350 N.am      1 <0>        -0.8534
     19 O3         -7.7814   -4.7419   -6.5728 O.3       1 <0>        -0.4786
     20 N3         -4.2097   -1.2930   -2.9929 N.ar      1 <0>        -0.1510
     21 C15        -4.8629   -2.2330   -2.3222 C.ar      1 <0>        -0.0279
     22 C16        -6.0619   -1.9531   -1.6994 C.ar      1 <0>        -0.0830
     23 C17        -6.5854   -0.6712   -1.7792 C.ar      1 <0>        -0.1789
     24 C18        -5.8766    0.2933   -2.4901 C.ar      1 <0>         0.2636
     25 C19        -4.6761   -0.0554   -3.0868 C.ar      1 <0>        -0.0772
     26 O4         -6.3540    1.5616   -2.5935 O.3       1 <0>        -0.6607
     27 S1         -0.3154   -1.3728   -3.9866 S.3       1 <0>        -0.7049
     28 H1         -0.5653    3.6832   -1.1499 H         1 <0>         0.0688
     29 H2         -1.9768    2.9958   -1.9885 H         1 <0>         0.0661
     30 H3         -2.0764    3.3910   -0.2559 H         1 <0>         0.0638
     31 H4         -1.0333    1.9861    1.3366 H         1 <0>         0.1004
     32 H5         -0.4735    0.2851    0.7959 H         1 <0>         0.0991
     33 H6         -0.2160    1.1767   -2.6545 H         1 <0>         0.0808
     34 H7          0.0685   -0.0913   -1.4381 H         1 <0>         0.0790
     35 H8         -2.7192    0.1973   -1.7879 H         1 <0>         0.3899
     36 H9         -5.4317   -1.4535   -4.5819 H         1 <0>         0.1347
     37 H10        -7.5274   -2.4003   -5.4351 H         1 <0>         0.1371
     38 H11        -3.3177   -4.9746   -5.8138 H         1 <0>         0.1374
     39 H12        -3.4628   -6.6246   -6.5986 H         1 <0>         0.4032
     40 H13        -4.2978   -7.8774   -7.3443 H         1 <0>         0.4031
     41 H14        -7.9634   -4.5260   -7.4977 H         1 <0>         0.3943
     42 H15        -4.4513   -3.2297   -2.2633 H         1 <0>         0.1634
     43 H16        -6.5875   -2.7242   -1.1557 H         1 <0>         0.1445
     44 H17        -7.5223   -0.4268   -1.3007 H         1 <0>         0.1343
     45 H18        -4.1167    0.6868   -3.6369 H         1 <0>         0.1638
@<TRIPOS>BOND
     1    1    2 1
     2    1   28 1
     3    1   29 1
     4    1   30 1
     5    2    3 2
     6    2    4 1
     7    3   31 1
     8    3   32 1
     9    4    5 1
    10    4   33 1
    11    4   34 1
    12    5    6 1
    13    5   35 1
    14    6    7 2
    15    6   27 1
    16    7    8 1
    17    7   20 1
    18    8    9 2
    19    8   10 1
    20   10   15 ar
    21   10   11 ar
    22   11   12 ar
    23   11   36 1
    24   12   13 ar
    25   12   37 1
    26   13   14 ar
    27   13   19 1
    28   14   15 ar
    29   14   16 1
    30   15   38 1
    31   16   17 2
    32   16   18 am
    33   18   39 1
    34   18   40 1
    35   19   41 1
    36   20   25 ar
    37   20   21 ar
    38   21   22 ar
    39   21   42 1
    40   22   23 ar
    41   22   43 1
    42   23   24 ar
    43   23   44 1
    44   24   25 ar
    45   24   26 1
    46   25   45 1
@<TRIPOS>MOLECULE
ZINC12600797
   44    45     0     0     0
SMALL
USER_CHARGES

@<TRIPOS>ATOM
      1 C1         -1.9082    1.7436    0.7320 C.3       1 <0>        -0.1529
      2 C2         -2.2422    0.2548    0.8447 C.3       1 <0>         0.0533
      3 O1         -1.3356   -0.4992    0.0374 O.3       1 <0>        -0.3159
      4 C3         -1.4962   -1.8493    0.0252 C.ar      1 <0>         0.1199
      5 C4         -2.5096   -2.4337    0.7710 C.ar      1 <0>        -0.1885
      6 C5         -2.6733   -3.8048    0.7591 C.ar      1 <0>        -0.0772
      7 C6         -1.8234   -4.5985    0.0005 C.ar      1 <0>         0.1047
      8 C7         -0.8093   -4.0130   -0.7456 C.ar      1 <0>        -0.1009
      9 C8         -0.6503   -2.6413   -0.7373 C.ar      1 <0>        -0.1332
     10 N1         -1.9886   -5.9898   -0.0116 N.am      1 <0>        -0.6630
     11 C9         -3.2220   -6.5229    0.0935 C.2       1 <0>         0.5333
     12 O2         -4.1962   -5.8003    0.1023 O.2       1 <0>        -0.5015
     13 C10        -3.3907   -8.0166    0.2002 C.3       1 <0>        -0.1070
     14 H1         -2.6128   -8.4249    0.8453 H         1 <0>         0.1259
     15 C11        -3.2802   -8.6430   -1.1913 C.3       1 <0>        -0.1439
     16 S1         -5.0195   -8.3924    0.9048 S.3       1 <0>         0.0299
     17 C12        -5.0052  -10.1433    1.1013 C.ar      1 <0>         0.2421
     18 C13        -6.1336  -10.7956    1.6284 C.ar      1 <0>        -0.1960
     19 C14        -6.1001  -12.1981    1.7770 C.ar      1 <0>         0.3503
     20 N2         -7.1891  -12.8851    2.2919 N.pl3     1 <0>        -0.8466
     21 C15        -4.9476  -12.8733    1.3935 C.ar      1 <0>        -0.3303
     22 C16        -3.8753  -12.1545    0.8812 C.ar      1 <0>         0.4761
     23 N3         -3.9340  -10.8358    0.7465 N.ar      1 <0>        -0.5816
     24 N4         -2.7254  -12.8274    0.4984 N.pl3     1 <0>        -0.8384
     25 C17        -7.2956  -10.0498    2.0081 C.1       1 <0>         0.2601
     26 N5         -8.2174   -9.4582    2.3093 N.1       1 <0>        -0.4168
     27 H2         -2.5997    2.3187    1.3478 H         1 <0>         0.0792
     28 H3         -0.8878    1.9141    1.0755 H         1 <0>         0.0666
     29 H4         -1.9990    2.0587   -0.3075 H         1 <0>         0.0667
     30 H5         -2.1513   -0.0604    1.8842 H         1 <0>         0.0626
     31 H6         -3.2625    0.0843    0.5012 H         1 <0>         0.0629
     32 H7         -3.1703   -1.8162    1.3612 H         1 <0>         0.1320
     33 H8         -3.4620   -4.2596    1.3400 H         1 <0>         0.1376
     34 H9         -0.1477   -4.6299   -1.3356 H         1 <0>         0.1340
     35 H10         0.1356   -2.1854   -1.3211 H         1 <0>         0.1362
     36 H11        -1.2153   -6.5693   -0.0956 H         1 <0>         0.4127
     37 H12        -2.3015   -8.4172   -1.6147 H         1 <0>         0.0689
     38 H13        -3.4022   -9.7234   -1.1142 H         1 <0>         0.0933
     39 H14        -4.0581   -8.2346   -1.8364 H         1 <0>         0.0704
     40 H15        -7.9874  -12.4011    2.5553 H         1 <0>         0.4059
     41 H16        -4.8862  -13.9470    1.4933 H         1 <0>         0.1394
     42 H17        -2.6747  -13.7918    0.5895 H         1 <0>         0.4126
     43 H18        -1.9714  -12.3338    0.1395 H         1 <0>         0.4070
     44 H19        -7.1525  -13.8495    2.3887 H         1 <0>         0.4100
@<TRIPOS>BOND
     1    1    2 1
     2    1   27 1
     3    1   28 1
     4    1   29 1
     5    2    3 1
     6    2   30 1
     7    2   31 1
     8    3    4 1
     9    4    9 ar
    10    4    5 ar
    11    5    6 ar
    12    5   32 1
    13    6    7 ar
    14    6   33 1
    15    7    8 ar
    16    7   10 1
    17    8    9 ar
    18    8   34 1
    19    9   35 1
    20   10   11 am
    21   10   36 1
    22   11   12 2
    23   11   13 1
    24   13   14 1
    25   13   15 1
    26   13   16 1
    27   15   37 1
    28   15   38 1
    29   15   39 1
    30   16   17 1
    31   17   23 ar
    32   17   18 ar
    33   18   19 ar
    34   18   25 1
    35   19   20 1
    36   19   21 ar
    37   20   40 1
    38   20   44 1
    39   21   22 ar
    40   21   41 1
    41   22   23 ar
    42   22   24 1
    43   24   42 1
    44   24   43 1
    45   25   26 3
@<TRIPOS>MOLECULE
ZINC07027615
   37    38     0     0     0
SMALL
USER_CHARGES

@<TRIPOS>ATOM
      1 C1         -0.0166    1.3733    0.0096 C.ar      1 <0>        -0.2354
      2 C2          1.1699    2.0899    0.0021 C.ar      1 <0>        -0.0403
      3 C3          2.3828    1.4328   -0.0134 C.ar      1 <0>        -0.2682
      4 C4          2.4220    0.0438   -0.0217 C.ar      1 <0>         0.3294
      5 C5          1.2224   -0.6846   -0.0136 C.ar      1 <0>        -0.2175
      6 C6          0.0021   -0.0041    0.0020 C.ar      1 <0>        -0.0386
      7 C7          1.2496   -2.1587   -0.0227 C.2       1 <0>         0.5675
      8 O1          2.3137   -2.7471   -0.0372 O.2       1 <0>        -0.5015
      9 N1          0.0951   -2.8540   -0.0150 N.am      1 <0>        -0.7406
     10 C8          0.1221   -4.3188   -0.0240 C.3       1 <0>         0.1057
     11 C9         -1.2891   -4.8473   -0.0127 C.2       1 <0>         0.5143
     12 O2         -2.2253   -4.0764    0.0016 O.2       1 <0>        -0.5404
     13 N2         -1.5109   -6.1767   -0.0183 N.am      1 <0>        -0.8538
     14 N3          3.6417   -0.6200   -0.0382 N.2       1 <0>        -1.0238
     15 S1          5.0545    0.2438   -0.0482 S.o2      1 <0>         2.5902
     16 O3          5.1006    0.9327   -1.2902 O.2       1 <0>        -1.0217
     17 O4          5.1267    0.9186    1.2003 O.2       1 <0>        -1.0149
     18 C10         6.3769   -0.9204   -0.0686 C.ar      1 <0>        -0.6282
     19 C11         7.2218   -0.9873   -1.1602 C.ar      1 <0>        -0.0351
     20 C12         8.2610   -1.9017   -1.1761 C.ar      1 <0>         0.0586
     21 C13         8.4540   -2.7493   -0.0982 C.ar      1 <0>        -0.0865
     22 C14         7.6093   -2.6824    0.9931 C.ar      1 <0>        -0.1530
     23 C15         6.5729   -1.7642    1.0112 C.ar      1 <0>         0.1989
     24 F1          5.7500   -1.6953    2.0804 F         1 <0>        -0.1079
     25 F2          9.0867   -1.9674   -2.2434 F         1 <0>        -0.1369
     26 H1         -0.9607    1.8975    0.0259 H         1 <0>         0.1077
     27 H2          1.1446    3.1696    0.0081 H         1 <0>         0.1068
     28 H3          3.3027    1.9985   -0.0195 H         1 <0>         0.1026
     29 H4         -0.9254   -0.5573    0.0079 H         1 <0>         0.1097
     30 H5         -0.7537   -2.3847   -0.0034 H         1 <0>         0.4031
     31 H6          0.6334   -4.6672   -0.9214 H         1 <0>         0.0933
     32 H7          0.6517   -4.6778    0.8584 H         1 <0>         0.0934
     33 H8         -0.7621   -6.7933   -0.0297 H         1 <0>         0.4040
     34 H9         -2.4192   -6.5169   -0.0110 H         1 <0>         0.4021
     35 H10         7.0711   -0.3265   -2.0010 H         1 <0>         0.1595
     36 H11         9.2645   -3.4629   -0.1108 H         1 <0>         0.1474
     37 H12         7.7596   -3.3437    1.8336 H         1 <0>         0.1501
@<TRIPOS>BOND
     1    1    6 ar
     2    1    2 ar
     3    1   26 1
     4    2    3 ar
     5    2   27 1
     6    3    4 ar
     7    3   28 1
     8    4    5 ar
     9    4   14 1
    10    5    6 ar
    11    5    7 1
    12    6   29 1
    13    7    8 2
    14    7    9 am
    15    9   10 1
    16    9   30 1
    17   10   11 1
    18   10   31 1
    19   10   32 1
    20   11   12 2
    21   11   13 am
    22   13   33 1
    23   13   34 1
    24   14   15 1
    25   15   16 2
    26   15   17 2
    27   15   18 1
    28   18   23 ar
    29   18   19 ar
    30   19   20 ar
    31   19   35 1
    32   20   21 ar
    33   20   25 1
    34   21   22 ar
    35   21   36 1
    36   22   23 ar
    37   22   37 1
    38   23   24 1
@<TRIPOS>MOLECULE
ZINC15958514
   73    76     0     0     0
SMALL
USER_CHARGES
2-[[4-[2-[(8S,9S,10S,11R,13S,14S,17S)-11,17-dihydroxy-10,13-dimethyl-3-oxo-2,6,7,8,9,11,12,14,15,16-decahydro-1H-cyclopenta[a]phenanthren-17-yl]-2-oxo-ethoxy]-4-oxo-butanoyl]amino]acetic acid
@<TRIPOS>ATOM
      1 C1          1.4789    3.0342    1.2361 C.3       1 <0>        -0.1419
      2 C2          1.4294    1.7209    0.4526 C.3       1 <0>        -0.0270
      3 C3          1.9958    1.9372   -0.9521 C.3       1 <0>        -0.1116
      4 C4          3.4545    2.3919   -0.8344 C.3       1 <0>        -0.1612
      5 C5          4.2265    1.3590   -0.0521 C.2       1 <0>         0.3883
      6 O1          5.4175    1.2218   -0.2386 O.2       1 <0>        -0.4668
      7 C6          3.5395    0.5237    0.9311 C.2       1 <0>        -0.2444
      8 C7          2.2414    0.6753    1.1708 C.2       1 <0>        -0.0116
      9 C8          1.5371   -0.2006    2.1776 C.3       1 <0>        -0.0961
     10 C9          0.4338   -0.9830    1.4771 C.3       1 <0>        -0.1077
     11 C10        -0.0612   -0.2832    0.2160 C.3       1 <0>        -0.0701
     12 H1          0.5541   -0.5868   -0.6310 H         1 <0>         0.0837
     13 C11        -0.0238    1.2395    0.3498 C.3       1 <0>        -0.0620
     14 H2         -0.5581    1.5295    1.2546 H         1 <0>         0.0851
     15 C12        -0.6670    1.9474   -0.8415 C.3       1 <0>         0.1084
     16 H3         -0.0370    1.8037   -1.7193 H         1 <0>         0.0706
     17 C13        -2.0742    1.4184   -1.1481 C.3       1 <0>        -0.1512
     18 C14        -1.9388   -0.0745   -1.3902 C.3       1 <0>        -0.0413
     19 C15        -1.5001   -0.7013   -0.0410 C.3       1 <0>        -0.0888
     20 H4         -2.1421   -0.3633    0.7724 H         1 <0>         0.0868
     21 C16        -1.7185   -2.1954   -0.3044 C.3       1 <0>        -0.1094
     22 C17        -3.0692   -2.2192   -1.0706 C.3       1 <0>        -0.1438
     23 C18        -3.2266   -0.8228   -1.7219 C.3       1 <0>         0.1086
     24 C19        -4.4153   -0.1048   -1.1365 C.2       1 <0>         0.3351
     25 O2         -4.7399   -0.3086    0.0087 O.2       1 <0>        -0.4071
     26 C20        -5.1988    0.8675   -1.9802 C.3       1 <0>         0.0302
     27 O3         -6.2863    1.4230   -1.1946 O.3       1 <0>        -0.3418
     28 C21        -7.0856    2.3128   -1.8039 C.2       1 <0>         0.4650
     29 O4         -6.8832    2.6174   -2.9555 O.2       1 <0>        -0.5047
     30 C22        -8.2354    2.9317   -1.0517 C.3       1 <0>        -0.0948
     31 C23        -8.9809    3.9033   -1.9688 C.3       1 <0>        -0.1299
     32 C24       -10.1306    4.5223   -1.2166 C.2       1 <0>         0.5057
     33 O5        -10.3338    4.2165   -0.0607 O.2       1 <0>        -0.5588
     34 N1        -10.9331    5.4157   -1.8283 N.am      1 <0>        -0.7022
     35 C25       -12.0509    6.0175   -1.0970 C.3       1 <0>         0.0753
     36 C26       -12.7852    6.9744   -2.0004 C.2       1 <0>         0.4585
     37 O6        -12.4130    7.1371   -3.1384 O.co2     1 <0>        -0.6355
     38 O7         -3.3743   -0.9506   -3.1375 O.3       1 <0>        -0.5365
     39 C27        -0.8833   -0.3505   -2.4629 C.3       1 <0>        -0.1357
     40 O8         -0.7500    3.3457   -0.5589 O.3       1 <0>        -0.5601
     41 H5          1.0777    2.8754    2.2370 H         1 <0>         0.0558
     42 H6          2.5116    3.3753    1.3085 H         1 <0>         0.0529
     43 H7          0.8827    3.7873    0.7209 H         1 <0>         0.0895
     44 H8          1.9486    1.0034   -1.5125 H         1 <0>         0.0695
     45 H9          1.4149    2.7031   -1.4660 H         1 <0>         0.0900
     46 H10         3.8484    2.4882   -1.7485 H         1 <0>         0.0848
     47 H11         3.4974    3.3508   -0.3178 H         1 <0>         0.1044
     48 H12         4.0957   -0.2281    1.4713 H         1 <0>         0.1300
     49 H13         1.1020    0.4213    2.9600 H         1 <0>         0.0846
     50 H14         2.2515   -0.8951    2.6198 H         1 <0>         0.0779
     51 H15        -0.4031   -1.1060    2.1645 H         1 <0>         0.0713
     52 H16         0.8153   -1.9679    1.2080 H         1 <0>         0.0699
     53 H17        -2.4696    1.9060   -2.0392 H         1 <0>         0.0747
     54 H18        -2.7349    1.5999   -0.3003 H         1 <0>         0.0762
     55 H19        -0.9170   -2.5992   -0.9229 H         1 <0>         0.0745
     56 H20        -1.7943   -2.7454    0.6336 H         1 <0>         0.0743
     57 H21        -3.0492   -2.9908   -1.8402 H         1 <0>         0.0842
     58 H22        -3.8896   -2.4032   -0.3770 H         1 <0>         0.0832
     59 H23        -4.5965    1.6055   -2.2844 H         1 <0>         0.0939
     60 H24        -5.6056    0.3493   -2.8486 H         1 <0>         0.1048
     61 H25        -8.9173    2.1482   -0.7213 H         1 <0>         0.1166
     62 H26        -7.8540    3.4709   -0.1845 H         1 <0>         0.1166
     63 H27        -8.2989    4.6869   -2.2992 H         1 <0>         0.1021
     64 H28        -9.3622    3.3642   -2.8360 H         1 <0>         0.1021
     65 H29       -10.7706    5.6603   -2.7528 H         1 <0>         0.4092
     66 H30       -12.7328    5.2339   -0.7667 H         1 <0>         0.0739
     67 H31       -11.6695    6.5566   -0.2299 H         1 <0>         0.0740
     68 H32        -4.1553   -1.4528   -3.4077 H         1 <0>         0.3818
     69 H33        -0.7660   -1.4269   -2.5888 H         1 <0>         0.0637
     70 H34        -1.1999    0.0933   -3.4068 H         1 <0>         0.0679
     71 H35         0.0679    0.0853   -2.1574 H         1 <0>         0.0643
     72 H36        -1.1483    3.8675   -1.2689 H         1 <0>         0.3786
     73 O9        -13.8526    7.6460   -1.5409 O.co2     1 <0>        -0.7564
@<TRIPOS>BOND
     1    1    2 1
     2    1   41 1
     3    1   42 1
     4    1   43 1
     5    2    8 1
     6    2   13 1
     7    2    3 1
     8    3    4 1
     9    3   44 1
    10    3   45 1
    11    4    5 1
    12    4   46 1
    13    4   47 1
    14    5    6 2
    15    5    7 1
    16    7    8 2
    17    7   48 1
    18    8    9 1
    19    9   10 1
    20    9   49 1
    21    9   50 1
    22   10   11 1
    23   10   51 1
    24   10   52 1
    25   11   12 1
    26   11   19 1
    27   11   13 1
    28   13   14 1
    29   13   15 1
    30   15   16 1
    31   15   17 1
    32   15   40 1
    33   17   18 1
    34   17   53 1
    35   17   54 1
    36   18   23 1
    37   18   19 1
    38   18   39 1
    39   19   20 1
    40   19   21 1
    41   21   22 1
    42   21   55 1
    43   21   56 1
    44   22   23 1
    45   22   57 1
    46   22   58 1
    47   23   24 1
    48   23   38 1
    49   24   25 2
    50   24   26 1
    51   26   27 1
    52   26   59 1
    53   26   60 1
    54   27   28 1
    55   28   29 2
    56   28   30 1
    57   30   31 1
    58   30   61 1
    59   30   62 1
    60   31   32 1
    61   31   63 1
    62   31   64 1
    63   32   33 2
    64   32   34 am
    65   34   35 1
    66   34   65 1
    67   35   36 1
    68   35   66 1
    69   35   67 1
    70   36   37 2
    71   36   73 1
    72   38   68 1
    73   39   69 1
    74   39   70 1
    75   39   71 1
    76   40   72 1
@<TRIPOS>MOLECULE
ZINC17302802
   45    47     0     0     0
SMALL
USER_CHARGES

@<TRIPOS>ATOM
      1 C1         -0.6167    1.5068   -2.1652 C.3       1 <0>        -0.1686
      2 C2         -0.6040   -0.0002   -2.1692 C.2       1 <0>         0.5024
      3 O1         -1.1374   -0.6088   -3.0726 O.2       1 <0>        -0.5207
      4 N1          0.0001   -0.6716   -1.1688 N.am      1 <0>        -0.6700
      5 C3         -0.0708   -2.0683   -1.1208 C.ar      1 <0>         0.0990
      6 C4         -0.1518   -2.7178    0.1048 C.ar      1 <0>        -0.1131
      7 C5         -0.2217   -4.0946    0.1529 C.ar      1 <0>        -0.1478
      8 C6         -0.2115   -4.8327   -1.0259 C.ar      1 <0>         0.1721
      9 C7         -0.1309   -4.1819   -2.2523 C.ar      1 <0>        -0.1158
     10 C8         -0.0659   -2.8047   -2.2991 C.ar      1 <0>        -0.0849
     11 N2         -0.2816   -6.2241   -0.9780 N.pl3     1 <0>        -0.4975
     12 N3         -0.2722   -6.9084   -2.0715 N.2       1 <0>        -0.1209
     13 C9         -0.3388   -8.2298   -2.0261 C.2       1 <0>         0.0197
     14 C10        -0.3246   -9.0475   -3.2485 C.2       1 <0>        -0.5982
     15 C11         0.0878  -10.3322   -3.1827 C.2       1 <0>        -0.0070
     16 C12         0.5159  -10.9255   -1.9187 C.ar      1 <0>        -0.0282
     17 C13         1.1817  -12.1566   -1.8958 C.ar      1 <0>        -0.0268
     18 C14         1.5746  -12.7032   -0.6946 C.ar      1 <0>        -0.6188
     19 C15         1.3207  -12.0520    0.5030 C.ar      1 <0>        -0.0643
     20 C16         0.6656  -10.8320    0.5129 C.ar      1 <0>         0.1321
     21 C17         0.2607  -10.2594   -0.6980 C.ar      1 <0>        -0.1545
     22 C18        -0.4253   -8.9624   -0.7403 C.2       1 <0>         0.4220
     23 O2         -1.0305   -8.5191    0.2214 O.2       1 <0>        -0.4561
     24 O3          0.4177  -10.1978    1.6866 O.3       1 <0>        -0.4794
     25 S1          2.4121  -14.2534   -0.6791 S.o2      1 <0>         2.6956
     26 O4          2.0729  -14.9042    0.5769 O.2       1 <0>        -1.0603
     27 O5          1.9309  -15.0050   -1.8278 O.2       1 <0>        -1.0545
     28 O6          3.8348  -13.9658   -0.7752 O.3       1 <0>        -1.0578
     29 S2         -0.8415   -8.3577   -4.7852 S.o2      1 <0>         2.6957
     30 O7         -0.1281   -7.1001   -4.9449 O.2       1 <0>        -1.0434
     31 O8         -0.4884   -9.3178   -5.8193 O.2       1 <0>        -1.0629
     32 O9         -2.2798   -8.1590   -4.6965 O.3       1 <0>        -1.0601
     33 H1         -1.5021    1.8612   -1.6374 H         1 <0>         0.0941
     34 H2          0.2776    1.8763   -1.6636 H         1 <0>         0.0794
     35 H3         -0.6349    1.8726   -3.1918 H         1 <0>         0.0948
     36 H4          0.4840   -0.1867   -0.4821 H         1 <0>         0.4069
     37 H5         -0.1597   -2.1445    1.0201 H         1 <0>         0.1269
     38 H6         -0.2839   -4.5994    1.1057 H         1 <0>         0.1285
     39 H7         -0.1229   -4.7544   -3.1681 H         1 <0>         0.1608
     40 H8         -0.0074   -2.2990   -3.2516 H         1 <0>         0.1435
     41 H9         -0.3375   -6.6778   -0.1225 H         1 <0>         0.3944
     42 H10         0.1007  -10.9315   -4.0811 H         1 <0>         0.1615
     43 H11         1.3867  -12.6774   -2.8195 H         1 <0>         0.1529
     44 H12         1.6362  -12.4991    1.4342 H         1 <0>         0.1462
     45 H13         1.1220   -9.5967    1.9652 H         1 <0>         0.3833
@<TRIPOS>BOND
     1    1    2 1
     2    1   33 1
     3    1   34 1
     4    1   35 1
     5    2    3 2
     6    2    4 am
     7    4    5 1
     8    4   36 1
     9    5   10 ar
    10    5    6 ar
    11    6    7 ar
    12    6   37 1
    13    7    8 ar
    14    7   38 1
    15    8    9 ar
    16    8   11 1
    17    9   10 ar
    18    9   39 1
    19   10   40 1
    20   11   12 1
    21   11   41 1
    22   12   13 2
    23   13   22 1
    24   13   14 1
    25   14   15 2
    26   14   29 1
    27   15   16 1
    28   15   42 1
    29   16   21 ar
    30   16   17 ar
    31   17   18 ar
    32   17   43 1
    33   18   19 ar
    34   18   25 1
    35   19   20 ar
    36   19   44 1
    37   20   21 ar
    38   20   24 1
    39   21   22 1
    40   22   23 2
    41   24   45 1
    42   25   26 2
    43   25   27 2
    44   25   28 1
    45   29   30 2
    46   29   31 2
    47   29   32 1
@<TRIPOS>MOLECULE
ZINC43740560
   72    75     0     0     0
SMALL
USER_CHARGES

@<TRIPOS>ATOM
      1 C1         -0.0187    1.5258    0.0104 C.3       1 <0>        -0.1784
      2 C2          0.0021   -0.0041    0.0020 C.3       1 <0>         0.1119
      3 H1         -1.0205   -0.3814    0.0098 H         1 <0>         0.0909
      4 C3          0.7421   -0.5109    1.2415 C.3       1 <0>         0.0416
      5 H2          0.2852   -0.0874    2.1360 H         1 <0>         0.0882
      6 C4          2.1879   -0.0922    1.1696 C.2       1 <0>         0.4909
      7 O1          2.5384    0.9736    1.6470 O.co2     1 <0>        -0.6872
      8 O2          3.0072   -0.8192    0.6341 O.co2     1 <0>        -0.6846
      9 N1          0.6591   -1.9725    1.2962 N.am      1 <0>        -0.6875
     10 C5          0.7683   -2.6100    2.4787 C.2       1 <0>         0.5125
     11 O3          0.9353   -1.9735    3.4975 O.2       1 <0>        -0.5318
     12 C6          0.6830   -4.1135    2.5349 C.3       1 <0>         0.0618
     13 O4          0.8262   -4.5484    3.8885 O.3       1 <0>        -0.2074
     14 N2          0.7604   -5.9534    4.0521 N.2       1 <0>        -0.3451
     15 C7          0.8767   -6.4751    5.2343 C.2       1 <0>         0.1707
     16 C8          1.0651   -5.5813    6.4322 C.3       1 <0>        -0.1147
     17 C9          0.7526   -6.3432    7.7194 C.3       1 <0>        -0.1025
     18 C10         1.5110   -7.6755    7.7468 C.3       1 <0>        -0.0194
     19 C11         1.1971   -8.4147    9.0387 C.3       1 <0>        -0.0603
     20 H3          0.9698   -7.6093    9.7736 H         1 <0>         0.0611
     21 C12         2.3829   -9.1520    9.6269 C.3       1 <0>        -0.1089
     22 C13         2.0350   -9.7784   10.9925 C.3       1 <0>        -0.0983
     23 C14         0.8638  -10.7124   10.8025 C.3       1 <0>        -0.0325
     24 C15        -0.3423   -9.9070   10.2815 C.3       1 <0>        -0.0760
     25 H4         -0.5874   -9.1142   11.0280 H         1 <0>         0.0782
     26 C16        -0.0796   -9.2399    8.9573 C.3       1 <0>        -0.0568
     27 H5         -0.9066   -8.4897    8.8195 H         1 <0>         0.0609
     28 C17        -0.1972  -10.1816    7.7801 C.3       1 <0>        -0.1087
     29 C18         0.9220   -9.9868    6.7597 C.3       1 <0>        -0.0811
     30 C19         1.0783   -8.4989    6.5595 C.2       1 <0>        -0.0564
     31 C20         0.8075   -7.9323    5.3967 C.2       1 <0>        -0.1181
     32 C21        -1.4635  -10.9526   10.3451 C.3       1 <0>        -0.1158
     33 C22        -1.1962  -11.6419   11.7141 C.3       1 <0>        -0.1435
     34 C23         0.2764  -11.3280   12.0835 C.3       1 <0>         0.2398
     35 C24         0.9970  -12.5626   12.4232 C.1       1 <0>        -0.2015
     36 C25         1.5728  -13.5490   12.6946 C.1       1 <0>        -0.1890
     37 O5          0.3389  -10.3904   13.1546 O.3       1 <0>        -0.5381
     38 C26         1.2690  -11.8685    9.8916 C.3       1 <0>        -0.1457
     39 C27         3.0109   -7.3942    7.6284 C.3       1 <0>        -0.1402
     40 O6          0.6709   -0.4649   -1.1737 O.3       1 <0>        -0.5688
     41 H6          1.0039    1.9031    0.0027 H         1 <0>         0.0757
     42 H7         -0.5459    1.8868   -0.8726 H         1 <0>         0.0560
     43 H8         -0.5289    1.8773    0.9072 H         1 <0>         0.0627
     44 H9          0.5255   -2.4815    0.4814 H         1 <0>         0.3987
     45 H10        -0.2839   -4.4372    2.1496 H         1 <0>         0.0813
     46 H11         1.4789   -4.5455    1.9283 H         1 <0>         0.0862
     47 H12         2.0803   -5.1898    6.4516 H         1 <0>         0.0915
     48 H13         0.3756   -4.7311    6.3474 H         1 <0>         0.0869
     49 H14         1.0517   -5.7438    8.5814 H         1 <0>         0.0737
     50 H15        -0.3194   -6.5409    7.7772 H         1 <0>         0.0671
     51 H16         2.7431   -9.9116    8.9433 H         1 <0>         0.0658
     52 H17         3.2010   -8.4460    9.8285 H         1 <0>         0.0635
     53 H18         2.8977  -10.3300   11.3700 H         1 <0>         0.0597
     54 H19         1.7735   -8.9870   11.6974 H         1 <0>         0.0720
     55 H20        -0.2615  -11.2155    8.0714 H         1 <0>         0.0746
     56 H21        -1.1437   -9.9453    7.2594 H         1 <0>         0.0547
     57 H22         1.8456  -10.4122    7.1369 H         1 <0>         0.0798
     58 H23         0.6426  -10.4569    5.8200 H         1 <0>         0.0738
     59 H24         0.5316   -8.5483    4.5536 H         1 <0>         0.1269
     60 H25        -2.4399  -10.4631   10.3527 H         1 <0>         0.0684
     61 H26        -1.4034  -11.6643    9.5289 H         1 <0>         0.0751
     62 H27        -1.8654  -11.2334   12.4714 H         1 <0>         0.0768
     63 H28        -1.3407  -12.7175   11.6258 H         1 <0>         0.0719
     64 H29         2.0878  -14.4313   12.9374 H         1 <0>         0.2170
     65 H30        -0.0178  -10.7229   13.9897 H         1 <0>         0.3772
     66 H31         2.1048  -12.4072   10.3382 H         1 <0>         0.0571
     67 H32         0.4246  -12.5464    9.7674 H         1 <0>         0.0558
     68 H33         1.5671  -11.4773    8.9188 H         1 <0>         0.0719
     69 H34         3.3307   -6.7708    8.4634 H         1 <0>         0.0615
     70 H35         3.5597   -8.3359    7.6470 H         1 <0>         0.0605
     71 H36         3.2105   -6.8758    6.6906 H         1 <0>         0.0602
     72 H37         1.5879   -0.1667   -1.2470 H         1 <0>         0.3861
@<TRIPOS>BOND
     1    1    2 1
     2    1   41 1
     3    1   42 1
     4    1   43 1
     5    2    3 1
     6    2    4 1
     7    2   40 1
     8    4    5 1
     9    4    6 1
    10    4    9 1
    11    6    7 2
    12    6    8 1
    13    9   10 am
    14    9   44 1
    15   10   11 2
    16   10   12 1
    17   12   13 1
    18   12   45 1
    19   12   46 1
    20   13   14 1
    21   14   15 2
    22   15   31 1
    23   15   16 1
    24   16   17 1
    25   16   47 1
    26   16   48 1
    27   17   18 1
    28   17   49 1
    29   17   50 1
    30   18   30 1
    31   18   19 1
    32   18   39 1
    33   19   20 1
    34   19   26 1
    35   19   21 1
    36   21   22 1
    37   21   51 1
    38   21   52 1
    39   22   23 1
    40   22   53 1
    41   22   54 1
    42   23   34 1
    43   23   24 1
    44   23   38 1
    45   24   25 1
    46   24   26 1
    47   24   32 1
    48   26   27 1
    49   26   28 1
    50   28   29 1
    51   28   55 1
    52   28   56 1
    53   29   30 1
    54   29   57 1
    55   29   58 1
    56   30   31 2
    57   31   59 1
    58   32   33 1
    59   32   60 1
    60   32   61 1
    61   33   34 1
    62   33   62 1
    63   33   63 1
    64   34   35 1
    65   34   37 1
    66   35   36 3
    67   36   64 1
    68   37   65 1
    69   38   66 1
    70   38   67 1
    71   38   68 1
    72   39   69 1
    73   39   70 1
    74   39   71 1
    75   40   72 1
@<TRIPOS>MOLECULE
ZINC59490004
   40    41     0     0     0
SMALL
USER_CHARGES

@<TRIPOS>ATOM
      1 C1         -0.4700    1.3739   -0.6243 C.3       1 <0>         0.0571
      2 N1         -0.4354   -0.0897   -0.6781 N.pl3     1 <0>        -1.0051
      3 C2         -0.6855   -0.8734    0.5341 C.3       1 <0>         0.0876
      4 S1         -0.1137   -0.8582   -2.1093 S.o2      1 <0>         2.6934
      5 O1         -0.6789   -2.1581   -2.0082 O.2       1 <0>        -0.9371
      6 O2         -0.4673    0.0478   -3.1453 O.2       1 <0>        -0.9470
      7 C3          1.6324   -1.0743   -2.2035 C.ar      1 <0>        -0.7537
      8 C4          2.1730   -2.3454   -2.2003 C.ar      1 <0>         0.0956
      9 C5          3.5431   -2.5159   -2.2747 C.ar      1 <0>        -0.1232
     10 C6          4.3769   -1.4151   -2.3525 C.ar      1 <0>         0.0418
     11 C7          3.8431   -0.1416   -2.3557 C.ar      1 <0>        -0.1939
     12 C8          2.4665    0.0331   -2.2869 C.ar      1 <0>         0.3469
     13 N2          1.9230    1.3197   -2.2957 N.pl3     1 <0>        -0.5309
     14 N3          2.7658    2.4357   -2.3798 N.pl3     1 <0>        -0.4630
     15 C9          2.2419    3.6756   -2.3883 C.2       1 <0>         0.2765
     16 C10         3.0637    4.7741   -2.5907 C.2       1 <0>        -0.3804
     17 C11         4.4692    4.6181   -2.9882 C.2       1 <0>         0.5158
     18 O3          5.0032    3.3920   -3.1690 O.3       1 <0>        -0.6683
     19 N4          5.1996    5.7069   -3.1652 N.2       1 <0>        -0.6654
     20 C12         4.6997    6.9277   -2.9945 C.2       1 <0>         0.6705
     21 O4          5.4350    7.8820   -3.1763 O.2       1 <0>        -0.5806
     22 N5          3.4301    7.1651   -2.6335 N.am      1 <0>        -0.6939
     23 C13         2.5642    6.1507   -2.4226 C.2       1 <0>         0.5872
     24 O5          1.4106    6.3659   -2.0998 O.2       1 <0>        -0.5569
     25 N6          4.1188   -3.8795   -2.2706 N.pl3     1 <0>         0.0457
     26 O6          3.3913   -4.8427   -2.2022 O.2       1 <0>        -0.1670
     27 O7          5.3167   -4.0301   -2.3356 O.3       1 <0>        -0.1631
     28 H1          0.5258    1.7526   -0.3936 H         1 <0>         0.0624
     29 H2         -0.7931    1.7655   -1.5888 H         1 <0>         0.0866
     30 H3         -1.1682    1.6926    0.1496 H         1 <0>         0.0987
     31 H4         -0.8768   -0.1997    1.3693 H         1 <0>         0.0874
     32 H5         -1.5527   -1.5154    0.3792 H         1 <0>         0.0740
     33 H6          0.1868   -1.4882    0.7557 H         1 <0>         0.0638
     34 H7          1.5248   -3.2071   -2.1393 H         1 <0>         0.1741
     35 H8          5.4466   -1.5518   -2.4105 H         1 <0>         0.1660
     36 H9          4.4948    0.7175   -2.4158 H         1 <0>         0.1652
     37 H10         0.9619    1.4406   -2.2435 H         1 <0>         0.4247
     38 H11         3.7268    2.3148   -2.4319 H         1 <0>         0.4477
     39 H12         1.1816    3.8149   -2.2374 H         1 <0>         0.1600
     40 H13         3.1279    8.0806   -2.5261 H         1 <0>         0.4007
@<TRIPOS>BOND
     1    1    2 1
     2    1   28 1
     3    1   29 1
     4    1   30 1
     5    2    3 1
     6    2    4 1
     7    3   31 1
     8    3   32 1
     9    3   33 1
    10    4    5 2
    11    4    6 2
    12    4    7 1
    13    7   12 ar
    14    7    8 ar
    15    8    9 ar
    16    8   34 1
    17    9   10 ar
    18    9   25 1
    19   10   11 ar
    20   10   35 1
    21   11   12 ar
    22   11   36 1
    23   12   13 1
    24   13   14 1
    25   13   37 1
    26   14   15 1
    27   14   38 1
    28   15   16 2
    29   15   39 1
    30   16   23 1
    31   16   17 1
    32   17   18 1
    33   17   19 2
    34   19   20 1
    35   20   21 2
    36   20   22 am
    37   22   23 am
    38   22   40 1
    39   23   24 2
    40   25   26 2
    41   25   27 1
@<TRIPOS>MOLECULE
ZINC65739464
   53    56     0     0     0
SMALL
USER_CHARGES

@<TRIPOS>ATOM
      1 C1         -1.5890    0.3037   -0.3632 C.ar      1 <0>        -0.1209
      2 C2         -0.9011    1.5030   -0.3535 C.ar      1 <0>        -0.0998
      3 C3          0.4758    1.5092   -0.2367 C.ar      1 <0>        -0.1151
      4 C4          1.1662    0.3148   -0.1291 C.ar      1 <0>        -0.0223
      5 C5          0.4774   -0.8848   -0.1384 C.ar      1 <0>        -0.0814
      6 C6         -0.9000   -0.8897   -0.2558 C.ar      1 <0>        -0.0707
      7 C7          1.2286   -2.1860   -0.0218 C.3       1 <0>         0.1381
      8 H1          2.1043   -2.0445    0.6116 H         1 <0>         0.0882
      9 C8          1.6666   -2.6377   -1.3911 C.2       1 <0>         0.4681
     10 O1          0.9587   -3.3701   -2.0409 O.2       1 <0>        -0.4518
     11 O2          2.8433   -2.2263   -1.8890 O.3       1 <0>        -0.3673
     12 C9          3.1950   -2.6934   -3.1929 C.3       1 <0>         0.2128
     13 H2          2.3997   -2.4437   -3.8952 H         1 <0>         0.1069
     14 C10         4.4987   -2.0266   -3.6397 C.3       1 <0>         0.0706
     15 H3          4.3779   -0.9434   -3.6236 H         1 <0>         0.0658
     16 C11         5.6239   -2.4305   -2.6821 C.3       1 <0>         0.1227
     17 H4          5.4002   -2.0626   -1.6807 H         1 <0>         0.0820
     18 C12         5.7321   -3.9582   -2.6544 C.3       1 <0>         0.1071
     19 H5          6.4934   -4.2565   -1.9336 H         1 <0>         0.0669
     20 C13         4.3808   -4.5504   -2.2456 C.3       1 <0>        -0.0071
     21 H6          4.1280   -4.2184   -1.2387 H         1 <0>         0.0534
     22 O3          3.3734   -4.1108   -3.1593 O.3       1 <0>        -0.3157
     23 C14         4.4624   -6.0549   -2.2731 C.2       1 <0>         0.5065
     24 O4          5.1995   -6.6397   -1.4977 O.co2     1 <0>        -0.6870
     25 O5          3.7914   -6.6874   -3.0707 O.co2     1 <0>        -0.6584
     26 O6          6.0907   -4.4352   -3.9528 O.3       1 <0>        -0.5285
     27 O7          6.8590   -1.8702   -3.1323 O.3       1 <0>        -0.5395
     28 O8          4.8225   -2.4514   -4.9651 O.3       1 <0>        -0.5021
     29 N1          0.3535   -3.2049    0.5732 N.3       1 <0>        -0.5186
     30 C15        -0.1090   -2.7894    1.9051 C.3       1 <0>         0.0566
     31 C16        -1.3151   -3.6566    2.3038 C.3       1 <0>        -0.0271
     32 C17        -0.9692   -5.0798    2.0093 C.2       1 <0>        -0.1497
     33 C18         0.0720   -5.5238    1.2508 C.2       1 <0>        -0.1048
     34 C19         0.2003   -6.9043    1.1176 C.2       1 <0>        -0.1388
     35 C20        -0.6861   -7.7282    1.7239 C.2       1 <0>        -0.1729
     36 S1         -1.7743   -6.5660    2.5356 S.3       1 <0>         0.0250
     37 C21         1.0159   -4.5151    0.6032 C.3       1 <0>         0.1069
     38 Cl1         2.8960    0.3218    0.0171 Cl        1 <0>        -0.0547
     39 H7         -2.6655    0.2995   -0.4503 H         1 <0>         0.1319
     40 H8         -1.4401    2.4352   -0.4375 H         1 <0>         0.1324
     41 H9          1.0131    2.4461   -0.2298 H         1 <0>         0.1355
     42 H10        -1.4378   -1.8263   -0.2635 H         1 <0>         0.1492
     43 H11         6.1770   -5.3967   -4.0086 H         1 <0>         0.3750
     44 H12         6.8585   -0.9044   -3.1798 H         1 <0>         0.3674
     45 H13         4.1497   -2.2315   -5.6240 H         1 <0>         0.3665
     46 H14         0.6941   -2.9253    2.6295 H         1 <0>         0.0476
     47 H15        -0.4058   -1.7409    1.8781 H         1 <0>         0.0913
     48 H16        -1.5192   -3.5387    3.3680 H         1 <0>         0.0861
     49 H17        -2.1899   -3.3616    1.7243 H         1 <0>         0.0899
     50 H18         1.0070   -7.3174    0.5302 H         1 <0>         0.1381
     51 H19        -0.7253   -8.8075    1.7188 H         1 <0>         0.1865
     52 H20         1.2473   -4.8313   -0.4140 H         1 <0>         0.1062
     53 H21         1.9346   -4.4473    1.1858 H         1 <0>         0.0530
@<TRIPOS>BOND
     1    1    6 ar
     2    1    2 ar
     3    1   39 1
     4    2    3 ar
     5    2   40 1
     6    3    4 ar
     7    3   41 1
     8    4    5 ar
     9    4   38 1
    10    5    6 ar
    11    5    7 1
    12    6   42 1
    13    7    8 1
    14    7    9 1
    15    7   29 1
    16    9   10 2
    17    9   11 1
    18   11   12 1
    19   12   13 1
    20   12   22 1
    21   12   14 1
    22   14   15 1
    23   14   16 1
    24   14   28 1
    25   16   17 1
    26   16   18 1
    27   16   27 1
    28   18   19 1
    29   18   20 1
    30   18   26 1
    31   20   21 1
    32   20   22 1
    33   20   23 1
    34   23   24 2
    35   23   25 1
    36   26   43 1
    37   27   44 1
    38   28   45 1
    39   29   37 1
    40   29   30 1
    41   30   31 1
    42   30   46 1
    43   30   47 1
    44   31   32 1
    45   31   48 1
    46   31   49 1
    47   32   36 1
    48   32   33 2
    49   33   34 1
    50   33   37 1
    51   34   35 2
    52   34   50 1
    53   35   36 1
    54   35   51 1
    55   37   52 1
    56   37   53 1
@<TRIPOS>MOLECULE
ZINC13079387
   44    45     0     0     0
SMALL
USER_CHARGES
(E)-3-[4-[(2,3-dimethyl-5-sulfamoyl-phenyl)sulfamoyl]phenyl]prop-2-enoic acid
@<TRIPOS>ATOM
      1 C1          0.9636    4.9025   -5.9830 C.3       1 <0>        -0.1194
      2 C2          1.1754    5.3426   -4.5573 C.ar      1 <0>        -0.0829
      3 C3          0.5190    6.4601   -4.0746 C.ar      1 <0>        -0.0284
      4 C4          0.7108    6.8676   -2.7674 C.ar      1 <0>        -0.6485
      5 C5          1.5596    6.1595   -1.9391 C.ar      1 <0>        -0.0786
      6 C6          2.2203    5.0367   -2.4206 C.ar      1 <0>         0.1433
      7 C7          2.0290    4.6329   -3.7361 C.ar      1 <0>        -0.0439
      8 C8          2.7486    3.4189   -4.2648 C.3       1 <0>        -0.1251
      9 N1          3.0797    4.3186   -1.5859 N.pl3     1 <0>        -1.0542
     10 S1          2.7259    4.1556    0.0236 S.o2      1 <0>         2.6862
     11 O1          2.5176    5.4675    0.5285 O.2       1 <0>        -0.9447
     12 O2          3.7010    3.2762    0.5667 O.2       1 <0>        -0.9499
     13 C9          1.1778    3.3215    0.1349 C.ar      1 <0>        -0.6972
     14 C10         1.1436    1.9393    0.1968 C.ar      1 <0>        -0.0149
     15 C11        -0.0638    1.2792    0.2844 C.ar      1 <0>        -0.1402
     16 C12        -1.2561    2.0099    0.3054 C.ar      1 <0>         0.0365
     17 C13        -1.2128    3.4066    0.2478 C.ar      1 <0>        -0.1442
     18 C14         0.0025    4.0520    0.1604 C.ar      1 <0>        -0.0131
     19 C15        -2.5494    1.3130    0.3926 C.2       1 <0>        -0.1455
     20 C16        -3.6975    2.0213    0.4126 C.2       1 <0>        -0.1126
     21 C17        -4.9825    1.3288    0.4992 C.2       1 <0>         0.4704
     22 O3         -5.0163    0.1142    0.5533 O.co2     1 <0>        -0.6289
     23 S2         -0.1279    8.2921   -2.1576 S.o2      1 <0>         2.6949
     24 O4         -1.2839    8.4603   -2.9668 O.2       1 <0>        -0.9586
     25 O5         -0.2008    8.1472   -0.7458 O.2       1 <0>        -0.9501
     26 N2          0.8482    9.5975   -2.4496 N.pl3     1 <0>        -1.2494
     27 H1          1.6984    5.3872   -6.6258 H         1 <0>         0.0760
     28 H2          1.0793    3.8208   -6.0504 H         1 <0>         0.0742
     29 H3         -0.0400    5.1813   -6.3040 H         1 <0>         0.0755
     30 H4         -0.1452    7.0156   -4.7202 H         1 <0>         0.1469
     31 H5          1.7095    6.4787   -0.9183 H         1 <0>         0.1796
     32 H6          2.1377    2.5321   -4.0958 H         1 <0>         0.0854
     33 H7          2.9270    3.5389   -5.3334 H         1 <0>         0.0799
     34 H8          3.7016    3.3075   -3.7476 H         1 <0>         0.0696
     35 H9          3.8837    3.9154   -1.9490 H         1 <0>         0.4264
     36 H10         2.0650    1.3762    0.1767 H         1 <0>         0.1374
     37 H11        -0.0890    0.2005    0.3323 H         1 <0>         0.1363
     38 H12        -2.1291    3.9780    0.2672 H         1 <0>         0.1402
     39 H13         0.0375    5.1304    0.1120 H         1 <0>         0.1410
     40 H14        -2.5794    0.2344    0.4406 H         1 <0>         0.1347
     41 H15        -3.6674    3.0998    0.3645 H         1 <0>         0.1120
     42 H16         1.7060    9.4739   -2.8853 H         1 <0>         0.4162
     43 H17         0.5622   10.4858   -2.1849 H         1 <0>         0.4209
     44 O6         -6.1305    2.0371    0.5192 O.co2     1 <0>        -0.7532
@<TRIPOS>BOND
     1    1    2 1
     2    1   27 1
     3    1   28 1
     4    1   29 1
     5    2    7 ar
     6    2    3 ar
     7    3    4 ar
     8    3   30 1
     9    4    5 ar
    10    4   23 1
    11    5    6 ar
    12    5   31 1
    13    6    7 ar
    14    6    9 1
    15    7    8 1
    16    8   32 1
    17    8   33 1
    18    8   34 1
    19    9   10 1
    20    9   35 1
    21   10   11 2
    22   10   12 2
    23   10   13 1
    24   13   18 ar
    25   13   14 ar
    26   14   15 ar
    27   14   36 1
    28   15   16 ar
    29   15   37 1
    30   16   17 ar
    31   16   19 1
    32   17   18 ar
    33   17   38 1
    34   18   39 1
    35   19   20 2
    36   19   40 1
    37   20   21 1
    38   20   41 1
    39   21   22 2
    40   21   44 1
    41   23   24 2
    42   23   25 2
    43   23   26 1
    44   26   42 1
    45   26   43 1
@<TRIPOS>MOLECULE
ZINC31665222
   39    40     0     0     0
SMALL
USER_CHARGES
2-hydroxy-4-methyl-5-[[(3-nitrobenzoyl)amino]sulfamoyl]benzoic acid
@<TRIPOS>ATOM
      1 C1        -10.0470    2.6822   -0.7832 C.3       1 <0>        -0.1619
      2 C2         -9.5466    3.6490    0.2588 C.ar      1 <0>         0.0575
      3 C3         -9.6482    5.0086    0.0387 C.ar      1 <0>        -0.2105
      4 C4         -9.1893    5.9036    0.9933 C.ar      1 <0>         0.2745
      5 C5         -8.6226    5.4215    2.1820 C.ar      1 <0>        -0.2529
      6 C6         -8.5309    4.0433    2.3936 C.ar      1 <0>         0.0717
      7 C7         -8.9871    3.1686    1.4314 C.ar      1 <0>        -0.7545
      8 S1         -8.8647    1.4311    1.6970 S.o2      1 <0>         2.6995
      9 O1        -10.1432    0.8844    1.4043 O.2       1 <0>        -0.9449
     10 O2         -8.2319    1.2565    2.9573 O.2       1 <0>        -0.9440
     11 N1         -7.8223    0.8338    0.5572 N.pl3     1 <0>        -0.9024
     12 N2         -6.5287    1.3602    0.4466 N.am      1 <0>        -0.5118
     13 C8         -5.4594    0.5449    0.5368 C.2       1 <0>         0.5691
     14 O3         -5.6172   -0.6572    0.6236 O.2       1 <0>        -0.5116
     15 C9         -4.0943    1.1126    0.5303 C.ar      1 <0>        -0.1211
     16 C10        -3.9037    2.4773    0.3070 C.ar      1 <0>        -0.0343
     17 C11        -2.6275    3.0007    0.3027 C.ar      1 <0>        -0.1151
     18 C12        -1.5378    2.1771    0.5247 C.ar      1 <0>        -0.0296
     19 C13        -1.7194    0.8228    0.7411 C.ar      1 <0>        -0.0508
     20 C14        -2.9907    0.2866    0.7480 C.ar      1 <0>         0.0041
     21 N3         -0.5477   -0.0517    0.9717 N.pl3     1 <0>         0.0283
     22 O4         -0.7064   -1.2434    1.1673 O.2       1 <0>        -0.1524
     23 O5          0.5754    0.4194    0.9609 O.3       1 <0>        -0.1554
     24 C15        -8.1312    6.3629    3.2042 C.2       1 <0>         0.5071
     25 O6         -8.2165    7.5606    3.0182 O.co2     1 <0>        -0.6239
     26 O7         -7.5874    5.8953    4.3450 O.co2     1 <0>        -0.7220
     27 O8         -9.2877    7.2392    0.7781 O.3       1 <0>        -0.5224
     28 H1        -10.4542    3.2425   -1.6377 H         1 <0>         0.0820
     29 H2        -10.8363    2.0511   -0.3488 H         1 <0>         0.1050
     30 H3         -9.2157    2.0473   -1.1236 H         1 <0>         0.0770
     31 H4        -10.0854    5.3752   -0.8782 H         1 <0>         0.1332
     32 H5         -8.0995    3.6642    3.3083 H         1 <0>         0.1526
     33 H6         -8.1074    0.1194   -0.0338 H         1 <0>         0.4254
     34 H7         -6.3858    2.4390    0.2861 H         1 <0>         0.4461
     35 H8         -4.7536    3.1220    0.1383 H         1 <0>         0.1493
     36 H9         -2.4786    4.0564    0.1300 H         1 <0>         0.1601
     37 H10        -0.5410    2.5926    0.5247 H         1 <0>         0.1607
     38 H11        -3.1314   -0.7702    0.9210 H         1 <0>         0.1686
     39 H12        -8.9229    7.9469    1.5371 H         1 <0>         0.4495
@<TRIPOS>BOND
     1    1    2 1
     2    1   28 1
     3    1   29 1
     4    1   30 1
     5    2    7 ar
     6    2    3 ar
     7    3    4 ar
     8    3   31 1
     9    4    5 ar
    10    4   27 1
    11    5    6 ar
    12    5   24 1
    13    6    7 ar
    14    6   32 1
    15    7    8 1
    16    8    9 2
    17    8   10 2
    18    8   11 1
    19   11   12 1
    20   11   33 1
    21   12   13 am
    22   12   34 1
    23   13   14 2
    24   13   15 1
    25   15   20 ar
    26   15   16 ar
    27   16   17 ar
    28   16   35 1
    29   17   18 ar
    30   17   36 1
    31   18   19 ar
    32   18   37 1
    33   19   20 ar
    34   19   21 1
    35   20   38 1
    36   21   22 2
    37   21   23 1
    38   24   25 2
    39   24   26 1
    40   27   39 1
@<TRIPOS>MOLECULE
ZINC38794567
   56    59     0     0     0
SMALL
USER_CHARGES

@<TRIPOS>ATOM
      1 C1         -0.2031    1.7299   -0.2190 C.3       1 <0>        -0.1463
      2 C2         -0.0107    0.2274   -0.0041 C.3       1 <0>        -0.1030
      3 C3          0.7985   -0.0056    1.2733 C.3       1 <0>        -0.1525
      4 C4         -1.3771   -0.4482    0.1274 C.3       1 <0>         0.1819
      5 H1         -1.9861   -0.2090   -0.7444 H         1 <0>         0.1110
      6 C5         -1.1900   -1.9639    0.2186 C.3       1 <0>         0.2038
      7 H2         -0.5720   -2.2190    1.0794 H         1 <0>         0.0772
      8 N1         -2.5037   -2.6425    0.3061 N.3       1 <0>        -0.5017
      9 N2         -2.3735   -3.8680   -0.4846 N.3       1 <0>        -0.4887
     10 C6         -0.9880   -3.8654   -1.0084 C.3       1 <0>        -0.2626
     11 H3         -0.3347   -4.4476   -0.3586 H         1 <0>         0.1462
     12 O1         -0.5964   -2.4729   -0.9971 O.3       1 <0>        -0.3445
     13 S1         -0.9488   -4.5245   -2.6980 S.o2      1 <0>         2.4082
     14 O2          0.3641   -4.3576   -3.2152 O.2       1 <0>        -0.9101
     15 O3         -1.5276   -5.8223   -2.6877 O.2       1 <0>        -0.9005
     16 C7         -2.0637   -3.4060   -3.5904 C.3       1 <0>        -0.5569
     17 C8         -2.1431   -3.8240   -5.0361 C.ar      1 <0>        -0.0908
     18 C9         -1.2515   -3.3043   -5.9559 C.ar      1 <0>        -0.0993
     19 C10        -1.3244   -3.6878   -7.2820 C.ar      1 <0>        -0.1214
     20 C11        -2.2885   -4.5912   -7.6883 C.ar      1 <0>        -0.1085
     21 C12        -3.1795   -5.1116   -6.7683 C.ar      1 <0>        -0.1179
     22 C13        -3.1039   -4.7314   -5.4414 C.ar      1 <0>        -0.0968
     23 N3         -2.0462    0.0350    1.3378 N.pl3     1 <0>        -1.1090
     24 S2         -3.4848    0.8468    1.2208 S.o2      1 <0>         2.7004
     25 O4         -3.8918    1.1455    2.5490 O.2       1 <0>        -0.9684
     26 O5         -3.3037    1.8540    0.2348 O.2       1 <0>        -0.9599
     27 C14        -4.6702   -0.2845    0.5731 C.ar      1 <0>        -0.7076
     28 C15        -4.8451   -0.3883   -0.7984 C.ar      1 <0>        -0.0077
     29 C16        -5.7680   -1.2688   -1.3187 C.ar      1 <0>        -0.1434
     30 C17        -6.5305   -2.0603   -0.4590 C.ar      1 <0>         0.1555
     31 C18        -6.3505   -1.9522    0.9280 C.ar      1 <0>        -0.0567
     32 C19        -5.4141   -1.0652    1.4343 C.ar      1 <0>         0.0324
     33 O6         -7.2131   -2.8274    1.4933 O.3       1 <0>        -0.2736
     34 C20        -7.8903   -3.4437    0.5098 C.2       1 <0>         0.5245
     35 O7         -8.8413   -4.3860    0.6974 O.3       1 <0>        -0.6317
     36 N4         -7.4967   -2.9996   -0.6538 N.2       1 <0>        -0.6075
     37 H4          0.7698    2.2208   -0.2452 H         1 <0>         0.0558
     38 H5         -0.7207    1.8986   -1.1634 H         1 <0>         0.0636
     39 H6         -0.7956    2.1409    0.5984 H         1 <0>         0.0596
     40 H7          0.5235   -0.1958   -0.8548 H         1 <0>         0.0901
     41 H8          0.2644    0.4176    2.1240 H         1 <0>         0.0592
     42 H9          0.9357   -1.0760    1.4264 H         1 <0>         0.0534
     43 H10         1.7720    0.4757    1.1796 H         1 <0>         0.0605
     44 H11        -2.7384   -2.8538    1.2644 H         1 <0>         0.3760
     45 H12        -3.0448   -3.8854   -1.2377 H         1 <0>         0.3630
     46 H13        -3.0571   -3.4508   -3.1442 H         1 <0>         0.1475
     47 H14        -1.6827   -2.3867   -3.5274 H         1 <0>         0.1536
     48 H15        -0.4983   -2.5985   -5.6384 H         1 <0>         0.1309
     49 H16        -0.6282   -3.2812   -8.0007 H         1 <0>         0.1279
     50 H17        -2.3459   -4.8903   -8.7244 H         1 <0>         0.1261
     51 H18        -3.9330   -5.8172   -7.0858 H         1 <0>         0.1300
     52 H19        -3.7976   -5.1408   -4.7221 H         1 <0>         0.1347
     53 H20        -1.6466   -0.1207    2.2079 H         1 <0>         0.4155
     54 H21        -4.2546    0.2251   -1.4628 H         1 <0>         0.1275
     55 H22        -5.9010   -1.3459   -2.3877 H         1 <0>         0.1231
     56 H23        -5.2696   -0.9819    2.5014 H         1 <0>         0.1279
@<TRIPOS>BOND
     1    1    2 1
     2    1   37 1
     3    1   38 1
     4    1   39 1
     5    2    3 1
     6    2    4 1
     7    2   40 1
     8    3   41 1
     9    3   42 1
    10    3   43 1
    11    4    5 1
    12    4    6 1
    13    4   23 1
    14    6    7 1
    15    6   12 1
    16    6    8 1
    17    8    9 1
    18    8   44 1
    19    9   10 1
    20    9   45 1
    21   10   11 1
    22   10   12 1
    23   10   13 1
    24   13   14 2
    25   13   15 2
    26   13   16 1
    27   16   17 1
    28   16   46 1
    29   16   47 1
    30   17   22 ar
    31   17   18 ar
    32   18   19 ar
    33   18   48 1
    34   19   20 ar
    35   19   49 1
    36   20   21 ar
    37   20   50 1
    38   21   22 ar
    39   21   51 1
    40   22   52 1
    41   23   24 1
    42   23   53 1
    43   24   25 2
    44   24   26 2
    45   24   27 1
    46   27   32 ar
    47   27   28 ar
    48   28   29 ar
    49   28   54 1
    50   29   30 ar
    51   29   55 1
    52   30   36 1
    53   30   31 ar
    54   31   32 ar
    55   31   33 1
    56   32   56 1
    57   33   34 1
    58   34   35 1
    59   34   36 2
@<TRIPOS>MOLECULE
ZINC46004340
   48    49     0     0     0
SMALL
USER_CHARGES

@<TRIPOS>ATOM
      1 C1         -3.5599   -2.8385    1.8858 C.3       1 <0>        -0.1392
      2 C2         -2.3652   -1.9160    1.6362 C.3       1 <0>        -0.1416
      3 C3         -1.1641   -2.4362    2.3831 C.2       1 <0>         0.5063
      4 O1         -1.2548   -3.4456    3.0494 O.2       1 <0>        -0.5152
      5 N1          0.0108   -1.7799    2.3105 N.am      1 <0>        -0.6742
      6 C4          1.0993   -2.2068    3.0792 C.ar      1 <0>         0.1534
      7 C5          1.9852   -1.2760    3.6076 C.ar      1 <0>        -0.1681
      8 C6          3.0600   -1.6966    4.3665 C.ar      1 <0>        -0.0850
      9 C7          3.2577   -3.0437    4.6028 C.ar      1 <0>        -0.1320
     10 C8          2.3757   -3.9792    4.0774 C.ar      1 <0>         0.1942
     11 C9          1.2918   -3.5595    3.3194 C.ar      1 <0>        -0.1537
     12 N2          2.5769   -5.3432    4.3168 N.am      1 <0>        -0.6911
     13 C10         3.0785   -5.7533    5.4986 C.2       1 <0>         0.7016
     14 O2          3.4346   -4.9351    6.3246 O.2       1 <0>        -0.5852
     15 N3          3.1854   -7.0701    5.7648 N.am      1 <0>        -0.7126
     16 C11         3.7307   -7.5158    7.0495 C.3       1 <0>         0.2157
     17 C12         3.7425   -9.0221    7.0947 C.ar      1 <0>        -0.1927
     18 C13         2.7429   -9.7015    7.7633 C.ar      1 <0>        -0.0570
     19 C14         2.7533  -11.0835    7.8058 C.ar      1 <0>        -0.2323
     20 C15         3.7635  -11.7902    7.1791 C.ar      1 <0>        -0.0607
     21 C16         4.7656  -11.1173    6.5085 C.ar      1 <0>        -0.2587
     22 C17         4.7554   -9.7288    6.4594 C.ar      1 <0>         0.3020
     23 N4          5.7646   -9.0451    5.7776 N.2       1 <0>        -1.0876
     24 S1          6.9714   -9.8896    5.0208 S.o2      1 <0>         2.5247
     25 O3          7.6601  -10.5564    6.0697 O.2       1 <0>        -1.0305
     26 O4          6.3124  -10.6291    4.0019 O.2       1 <0>        -1.0313
     27 C18         8.0361   -8.6202    4.2821 C.3       1 <0>        -0.6366
     28 H1         -3.7801   -2.8672    2.9530 H         1 <0>         0.0629
     29 H2         -4.4287   -2.4622    1.3456 H         1 <0>         0.0621
     30 H3         -3.3223   -3.8434    1.5368 H         1 <0>         0.0631
     31 H4         -2.1450   -1.8873    0.5690 H         1 <0>         0.0949
     32 H5         -2.6029   -0.9111    1.9853 H         1 <0>         0.0951
     33 H6          0.1019   -1.0116    1.7254 H         1 <0>         0.4097
     34 H7          1.8336   -0.2225    3.4244 H         1 <0>         0.1212
     35 H8          3.7475   -0.9712    4.7758 H         1 <0>         0.1271
     36 H9          4.0992   -3.3694    5.1963 H         1 <0>         0.1452
     37 H10         0.6018   -4.2847    2.9138 H         1 <0>         0.1395
     38 H11         2.3553   -5.9936    3.6321 H         1 <0>         0.4059
     39 H12         2.9013   -7.7228    5.1059 H         1 <0>         0.3969
     40 H13         4.7480   -7.1409    7.1621 H         1 <0>         0.0780
     41 H14         3.1106   -7.1328    7.8599 H         1 <0>         0.0507
     42 H15         1.9526   -9.1527    8.2538 H         1 <0>         0.1045
     43 H16         1.9709  -11.6123    8.3299 H         1 <0>         0.1007
     44 H17         3.7688  -12.8696    7.2144 H         1 <0>         0.0999
     45 H18         5.5544  -11.6697    6.0196 H         1 <0>         0.1015
     46 H19         8.4279   -7.9730    5.0668 H         1 <0>         0.1151
     47 H20         8.8639   -9.0995    3.7595 H         1 <0>         0.0998
     48 H21         7.4564   -8.0254    3.5763 H         1 <0>         0.1137
@<TRIPOS>BOND
     1    1    2 1
     2    1   28 1
     3    1   29 1
     4    1   30 1
     5    2    3 1
     6    2   31 1
     7    2   32 1
     8    3    4 2
     9    3    5 am
    10    5    6 1
    11    5   33 1
    12    6   11 ar
    13    6    7 ar
    14    7    8 ar
    15    7   34 1
    16    8    9 ar
    17    8   35 1
    18    9   10 ar
    19    9   36 1
    20   10   11 ar
    21   10   12 1
    22   11   37 1
    23   12   13 am
    24   12   38 1
    25   13   14 2
    26   13   15 am
    27   15   16 1
    28   15   39 1
    29   16   17 1
    30   16   40 1
    31   16   41 1
    32   17   22 ar
    33   17   18 ar
    34   18   19 ar
    35   18   42 1
    36   19   20 ar
    37   19   43 1
    38   20   21 ar
    39   20   44 1
    40   21   22 ar
    41   21   45 1
    42   22   23 1
    43   23   24 1
    44   24   25 2
    45   24   26 2
    46   24   27 1
    47   27   46 1
    48   27   47 1
    49   27   48 1
@<TRIPOS>MOLECULE
ZINC65742678
   50    52     0     0     0
SMALL
USER_CHARGES

@<TRIPOS>ATOM
      1 C1         -0.0187    1.5258    0.0104 C.3       1 <0>        -0.1459
      2 C2          0.0021   -0.0041    0.0020 C.3       1 <0>        -0.0406
      3 H1          0.5123   -0.3556   -0.8948 H         1 <0>         0.1173
      4 C3         -1.4117   -0.5257    0.0127 C.ar      1 <0>        -0.0469
      5 C4         -2.2575   -0.2023    1.0588 C.ar      1 <0>        -0.0874
      6 C5         -3.5534   -0.6764    1.0751 C.ar      1 <0>        -0.0752
      7 C6         -4.0110   -1.4830    0.0352 C.ar      1 <0>        -0.0788
      8 C7         -3.1547   -1.8067   -1.0178 C.ar      1 <0>         0.1044
      9 C8         -1.8600   -1.3208   -1.0256 C.ar      1 <0>        -0.1402
     10 F1         -3.5908   -2.5885   -2.0296 F         1 <0>        -0.1357
     11 C9         -5.4031   -1.9960    0.0477 C.ar      1 <0>        -0.0478
     12 C10        -5.9081   -2.6202    1.1867 C.ar      1 <0>        -0.1011
     13 C11        -7.2038   -3.0955    1.1928 C.ar      1 <0>        -0.1196
     14 C12        -8.0007   -2.9533    0.0711 C.ar      1 <0>        -0.1178
     15 C13        -7.5046   -2.3345   -1.0621 C.ar      1 <0>        -0.1207
     16 C14        -6.2122   -1.8502   -1.0774 C.ar      1 <0>        -0.0992
     17 C15         0.7309   -0.5033    1.2229 C.2       1 <0>         0.4623
     18 O1          0.1608   -1.2101    2.0199 O.2       1 <0>        -0.4689
     19 O2          2.0135   -0.1627    1.4249 O.3       1 <0>        -0.3736
     20 C16         2.6421   -0.6716    2.6030 C.3       1 <0>         0.2115
     21 H2          2.5502   -1.7576    2.6238 H         1 <0>         0.1074
     22 C17         4.1232   -0.2845    2.5993 C.3       1 <0>         0.0688
     23 H3          4.5979   -0.6690    1.6966 H         1 <0>         0.0660
     24 C18         4.2439    1.2422    2.6306 C.3       1 <0>         0.1215
     25 H4          3.7987    1.6618    1.7285 H         1 <0>         0.0841
     26 C19         3.5065    1.7766    3.8623 C.3       1 <0>         0.1065
     27 H5          3.5402    2.8660    3.8628 H         1 <0>         0.0680
     28 C20         2.0492    1.3098    3.8172 C.3       1 <0>        -0.0083
     29 H6          1.5620    1.7239    2.9345 H         1 <0>         0.0572
     30 O3          2.0090   -0.1177    3.7582 O.3       1 <0>        -0.3161
     31 C21         1.3317    1.7822    5.0554 C.2       1 <0>         0.5059
     32 O4          1.1719    2.9752    5.2497 O.co2     1 <0>        -0.6870
     33 O5          0.9109    0.9713    5.8629 O.co2     1 <0>        -0.6595
     34 O6          4.1322    1.2789    5.0467 O.3       1 <0>        -0.5293
     35 O7          5.6227    1.6114    2.6993 O.3       1 <0>        -0.5398
     36 O8          4.7647   -0.8391    3.7495 O.3       1 <0>        -0.5023
     37 H7          1.0039    1.9031    0.0027 H         1 <0>         0.0765
     38 H8         -0.5459    1.8868   -0.8726 H         1 <0>         0.0755
     39 H9         -0.5289    1.8773    0.9072 H         1 <0>         0.0693
     40 H10        -1.9025    0.4226    1.8650 H         1 <0>         0.1348
     41 H11        -4.2117   -0.4230    1.8929 H         1 <0>         0.1372
     42 H12        -1.1968   -1.5664   -1.8418 H         1 <0>         0.1378
     43 H13        -5.2866   -2.7321    2.0628 H         1 <0>         0.1273
     44 H14        -7.5961   -3.5798    2.0748 H         1 <0>         0.1251
     45 H15        -9.0139   -3.3270    0.0802 H         1 <0>         0.1220
     46 H16        -8.1310   -2.2263   -1.9352 H         1 <0>         0.1234
     47 H17        -5.8275   -1.3630   -1.9610 H         1 <0>         0.1221
     48 H18         3.7161    1.5780    5.8667 H         1 <0>         0.3753
     49 H19         6.1512    1.2993    1.9520 H         1 <0>         0.3678
     50 H20         4.7226   -1.8041    3.7963 H         1 <0>         0.3667
@<TRIPOS>BOND
     1    1    2 1
     2    1   37 1
     3    1   38 1
     4    1   39 1
     5    2    3 1
     6    2    4 1
     7    2   17 1
     8    4    9 ar
     9    4    5 ar
    10    5    6 ar
    11    5   40 1
    12    6    7 ar
    13    6   41 1
    14    7    8 ar
    15    7   11 1
    16    8    9 ar
    17    8   10 1
    18    9   42 1
    19   11   16 ar
    20   11   12 ar
    21   12   13 ar
    22   12   43 1
    23   13   14 ar
    24   13   44 1
    25   14   15 ar
    26   14   45 1
    27   15   16 ar
    28   15   46 1
    29   16   47 1
    30   17   18 2
    31   17   19 1
    32   19   20 1
    33   20   21 1
    34   20   30 1
    35   20   22 1
    36   22   23 1
    37   22   24 1
    38   22   36 1
    39   24   25 1
    40   24   26 1
    41   24   35 1
    42   26   27 1
    43   26   28 1
    44   26   34 1
    45   28   29 1
    46   28   30 1
    47   28   31 1
    48   31   32 2
    49   31   33 1
    50   34   48 1
    51   35   49 1
    52   36   50 1
@<TRIPOS>MOLECULE
ZINC13250088
   49    50     0     0     0
SMALL
USER_CHARGES
(E)-3-[4-[(2-propylamino-5-sulfamoyl-phenyl)sulfamoyl]phenyl]prop-2-enoic acid
@<TRIPOS>ATOM
      1 C1          3.1165    1.3917   -7.3536 C.3       1 <0>        -0.1498
      2 C2          3.3292    1.8341   -5.9045 C.3       1 <0>        -0.1375
      3 C3          2.4899    3.0822   -5.6238 C.3       1 <0>         0.1172
      4 N1          2.6936    3.5058   -4.2363 N.pl3     1 <0>        -0.7360
      5 C4          2.0258    4.6334   -3.7434 C.ar      1 <0>         0.2604
      6 C5          1.1665    5.3471   -4.5650 C.ar      1 <0>        -0.1976
      7 C6          0.5129    6.4640   -4.0779 C.ar      1 <0>         0.0218
      8 C7          0.7080    6.8688   -2.7705 C.ar      1 <0>        -0.7054
      9 C8          1.5583    6.1595   -1.9424 C.ar      1 <0>        -0.0290
     10 C9          2.2182    5.0385   -2.4227 C.ar      1 <0>         0.0648
     11 N2          3.0797    4.3186   -1.5859 N.pl3     1 <0>        -1.0532
     12 S1          2.7261    4.1559    0.0237 S.o2      1 <0>         2.6881
     13 O1          2.5174    5.4679    0.5282 O.2       1 <0>        -0.9444
     14 O2          3.7016    3.2770    0.5670 O.2       1 <0>        -0.9535
     15 C10         1.1783    3.3213    0.1353 C.ar      1 <0>        -0.6961
     16 C11         1.1445    1.9391    0.1976 C.ar      1 <0>        -0.0162
     17 C12        -0.0627    1.2787    0.2855 C.ar      1 <0>        -0.1408
     18 C13        -1.2552    2.0090    0.3064 C.ar      1 <0>         0.0357
     19 C14        -1.2124    3.4057    0.2484 C.ar      1 <0>        -0.1438
     20 C15         0.0028    4.0515    0.1607 C.ar      1 <0>        -0.0114
     21 C16        -2.5482    1.3116    0.3939 C.2       1 <0>        -0.1454
     22 C17        -3.6965    2.0196    0.4138 C.2       1 <0>        -0.1130
     23 C18        -4.9814    1.3267    0.5007 C.2       1 <0>         0.4705
     24 O3         -5.0148    0.1122    0.5552 O.co2     1 <0>        -0.6294
     25 S2         -0.1288    8.2932   -2.1577 S.o2      1 <0>         2.6981
     26 O4         -1.2860    8.4630   -2.9648 O.2       1 <0>        -0.9645
     27 O5         -0.1994    8.1469   -0.7461 O.2       1 <0>        -0.9561
     28 N3          0.8477    9.5983   -2.4500 N.pl3     1 <0>        -1.2515
     29 H1          2.0625    1.1642   -7.5130 H         1 <0>         0.0597
     30 H2          3.4210    2.1932   -8.0266 H         1 <0>         0.0576
     31 H3          3.7144    0.5025   -7.5535 H         1 <0>         0.0611
     32 H4          4.3832    2.0616   -5.7450 H         1 <0>         0.0689
     33 H5          3.0246    1.0326   -5.2315 H         1 <0>         0.0711
     34 H6          1.4359    2.8547   -5.7833 H         1 <0>         0.0687
     35 H7          2.7944    3.8837   -6.2969 H         1 <0>         0.0669
     36 H8          3.2911    3.0051   -3.6591 H         1 <0>         0.4013
     37 H9          1.0117    5.0336   -5.5868 H         1 <0>         0.1378
     38 H10        -0.1523    7.0215   -4.7206 H         1 <0>         0.1459
     39 H11         1.7088    6.4787   -0.9217 H         1 <0>         0.1784
     40 H12         3.8836    3.9152   -1.9491 H         1 <0>         0.4201
     41 H13         2.0661    1.3764    0.1776 H         1 <0>         0.1357
     42 H14        -0.0875    0.2000    0.3337 H         1 <0>         0.1351
     43 H15        -2.1288    3.9768    0.2677 H         1 <0>         0.1403
     44 H16         0.0374    5.1298    0.1121 H         1 <0>         0.1420
     45 H17        -2.5779    0.2331    0.4422 H         1 <0>         0.1340
     46 H18        -3.6669    3.0982    0.3654 H         1 <0>         0.1123
     47 H19         1.7047    9.4746   -2.8873 H         1 <0>         0.4155
     48 H20         0.5628   10.4865   -2.1840 H         1 <0>         0.4190
     49 O6         -6.1296    2.0347    0.5206 O.co2     1 <0>        -0.7531
@<TRIPOS>BOND
     1    1    2 1
     2    1   29 1
     3    1   30 1
     4    1   31 1
     5    2    3 1
     6    2   32 1
     7    2   33 1
     8    3    4 1
     9    3   34 1
    10    3   35 1
    11    4    5 1
    12    4   36 1
    13    5   10 ar
    14    5    6 ar
    15    6    7 ar
    16    6   37 1
    17    7    8 ar
    18    7   38 1
    19    8    9 ar
    20    8   25 1
    21    9   10 ar
    22    9   39 1
    23   10   11 1
    24   11   12 1
    25   11   40 1
    26   12   13 2
    27   12   14 2
    28   12   15 1
    29   15   20 ar
    30   15   16 ar
    31   16   17 ar
    32   16   41 1
    33   17   18 ar
    34   17   42 1
    35   18   19 ar
    36   18   21 1
    37   19   20 ar
    38   19   43 1
    39   20   44 1
    40   21   22 2
    41   21   45 1
    42   22   23 1
    43   22   46 1
    44   23   24 2
    45   23   49 1
    46   25   26 2
    47   25   27 2
    48   25   28 1
    49   28   47 1
    50   28   48 1
@<TRIPOS>MOLECULE
ZINC26460794
   38    39     0     0     0
SMALL
USER_CHARGES
5-[(3,4-dicarbamoylphenyl)sulfamoyl]-2-hydroxy-benzoic acid
@<TRIPOS>ATOM
      1 C1          1.3445    1.9910    0.0660 C.ar      1 <0>        -0.1303
      2 C2          0.0836    1.5766   -0.3081 C.ar      1 <0>        -0.0678
      3 C3         -0.1046    0.2998   -0.8349 C.ar      1 <0>        -0.0865
      4 C4          0.9977   -0.5650   -0.9835 C.ar      1 <0>        -0.0778
      5 C5          2.2632   -0.1374   -0.6035 C.ar      1 <0>        -0.1057
      6 C6          2.4356    1.1400   -0.0792 C.ar      1 <0>         0.1667
      7 N1          3.7034    1.5677    0.3012 N.pl3     1 <0>        -1.0718
      8 S1          4.2399    3.0689   -0.1470 S.o2      1 <0>         2.6972
      9 O1          3.2082    3.9861    0.1899 O.2       1 <0>        -0.9524
     10 O2          5.5637    3.1934    0.3545 O.2       1 <0>        -0.9594
     11 C7          4.3646    3.0743   -1.9045 C.ar      1 <0>        -0.7490
     12 C8          5.5058    2.5812   -2.5164 C.ar      1 <0>         0.0215
     13 C9          5.6136    2.5754   -3.8928 C.ar      1 <0>        -0.2104
     14 C10         4.5813    3.0746   -4.6733 C.ar      1 <0>         0.2695
     15 C11         3.4271    3.5793   -4.0580 C.ar      1 <0>        -0.2476
     16 C12         3.3293    3.5740   -2.6637 C.ar      1 <0>         0.0715
     17 C13         2.3232    4.1120   -4.8766 C.2       1 <0>         0.5075
     18 O3          2.4120    4.1149   -6.0885 O.co2     1 <0>        -0.6241
     19 O4          1.2154    4.5958   -4.2811 O.co2     1 <0>        -0.7214
     20 O5          4.6882    3.0747   -6.0254 O.3       1 <0>        -0.5234
     21 C14         0.8080   -1.9224   -1.5412 C.2       1 <0>         0.5541
     22 O6         -0.3123   -2.3337   -1.7714 O.2       1 <0>        -0.5100
     23 N2          1.8774   -2.7027   -1.7940 N.am      1 <0>        -0.8751
     24 C15        -1.4541   -0.1445   -1.2361 C.2       1 <0>         0.5659
     25 O7         -1.6297   -0.6416   -2.3316 O.2       1 <0>        -0.5044
     26 N3         -2.4913    0.0009   -0.3879 N.am      1 <0>        -0.8763
     27 H1          1.4857    2.9810    0.4737 H         1 <0>         0.1685
     28 H2         -0.7584    2.2437   -0.1970 H         1 <0>         0.1438
     29 H3          3.1123   -0.7955   -0.7145 H         1 <0>         0.1367
     30 H4          4.3496    0.9088    0.8997 H         1 <0>         0.4511
     31 H5          6.3141    2.1952   -1.9131 H         1 <0>         0.1352
     32 H6          6.5048    2.1859   -4.3622 H         1 <0>         0.1329
     33 H7          2.4436    3.9614   -2.1823 H         1 <0>         0.1477
     34 H8          3.8680    3.4712   -6.6419 H         1 <0>         0.4488
     35 H9          1.7363   -3.7118   -2.2086 H         1 <0>         0.4243
     36 H10         2.8914   -2.3305   -1.5857 H         1 <0>         0.4143
     37 H11        -3.4968   -0.3301   -0.6868 H         1 <0>         0.4215
     38 H12        -2.3323    0.4506    0.6033 H         1 <0>         0.4146
@<TRIPOS>BOND
     1    1    6 ar
     2    1    2 ar
     3    1   27 1
     4    2    3 ar
     5    2   28 1
     6    3    4 ar
     7    3   24 1
     8    4    5 ar
     9    4   21 1
    10    5    6 ar
    11    5   29 1
    12    6    7 1
    13    7    8 1
    14    7   30 1
    15    8    9 2
    16    8   10 2
    17    8   11 1
    18   11   16 ar
    19   11   12 ar
    20   12   13 ar
    21   12   31 1
    22   13   14 ar
    23   13   32 1
    24   14   15 ar
    25   14   20 1
    26   15   16 ar
    27   15   17 1
    28   16   33 1
    29   17   18 2
    30   17   19 1
    31   20   34 1
    32   21   22 2
    33   21   23 am
    34   23   35 1
    35   23   36 1
    36   24   25 2
    37   24   26 am
    38   26   37 1
    39   26   38 1
@<TRIPOS>MOLECULE
ZINC38655515
   41    43     0     0     0
SMALL
USER_CHARGES

@<TRIPOS>ATOM
      1 C1         -0.0158    1.3119    0.0093 C.ar      1 <0>         0.3478
      2 N1          1.0888    2.0360    0.0026 N.ar      1 <0>        -0.5974
      3 C2          2.2875    1.4625   -0.0119 C.ar      1 <0>         0.5021
      4 C3          2.3582    0.0588   -0.0202 C.ar      1 <0>        -0.1049
      5 C4          1.1547   -0.6659   -0.0126 C.ar      1 <0>         0.3072
      6 N2          0.0021   -0.0041    0.0020 N.ar      1 <0>        -0.5395
      7 N3          1.5110   -1.9908   -0.0227 N.pl3     1 <0>        -0.4631
      8 C5          2.8729   -2.0476   -0.0358 C.2       1 <0>         0.2818
      9 N4          3.3680   -0.8441   -0.0343 N.2       1 <0>        -0.4739
     10 C6          0.5956   -3.1347   -0.0195 C.3       1 <0>         0.3169
     11 H1         -0.2828   -2.9138    0.5869 H         1 <0>         0.1189
     12 C7          0.1740   -3.4901   -1.4675 C.3       1 <0>         0.0326
     13 H2          1.0049   -3.3620   -2.1613 H         1 <0>         0.0867
     14 C8         -0.1950   -4.9902   -1.3073 C.3       1 <0>         0.0457
     15 H3         -0.0494   -5.5277   -2.2442 H         1 <0>         0.0848
     16 C9          0.8144   -5.4637   -0.2395 C.3       1 <0>         0.1218
     17 H4          1.6612   -5.9520   -0.7219 H         1 <0>         0.1144
     18 O1          1.2628   -4.3057    0.4773 O.3       1 <0>        -0.3259
     19 C10         0.1329   -6.4383    0.7231 C.3       1 <0>        -0.7290
     20 P1          1.3669   -7.1049    1.8877 P.3       1 <0>         2.2597
     21 O2          2.5340   -7.7358    1.0961 O.2       1 <0>        -1.0977
     22 O3          1.9060   -5.9621    2.7768 O.3       1 <0>        -1.0840
     23 O4          0.6786   -8.2269    2.8147 O.3       1 <0>        -0.7441
     24 C11         1.4095   -9.0116    3.7592 C.3       1 <0>        -0.4593
     25 P2          0.2733  -10.1607    4.6032 P.3       1 <0>         2.2250
     26 O5         -0.3859  -11.0913    3.5609 O.2       1 <0>        -1.0776
     27 O6          1.0635  -11.0091    5.6243 O.3       1 <0>        -1.0827
     28 O7         -1.5386   -5.1365   -0.8431 O.3       1 <0>        -0.5287
     29 O8         -0.9585   -2.7212   -1.8777 O.3       1 <0>        -0.5316
     30 N5          3.4393    2.2295   -0.0193 N.pl3     1 <0>        -0.8237
     31 H5         -0.9693    1.8187    0.0257 H         1 <0>         0.1999
     32 H6          3.4551   -2.9572   -0.0459 H         1 <0>         0.2292
     33 H7         -0.6457   -5.9155    1.2786 H         1 <0>         0.0882
     34 H8         -0.3118   -7.2567    0.1570 H         1 <0>         0.0902
     35 H9          2.1812   -9.5797    3.2398 H         1 <0>         0.0730
     36 H10         1.8746   -8.3550    4.4945 H         1 <0>         0.0494
     37 H11        -2.2039   -4.7735   -1.4436 H         1 <0>         0.3713
     38 H12        -1.2574   -2.9105   -2.7776 H         1 <0>         0.3778
     39 H13         3.3774    3.1975   -0.0138 H         1 <0>         0.4056
     40 H14         4.3085    1.7992   -0.0299 H         1 <0>         0.4175
     41 H15        -0.7320   -9.4205    5.2799 H         1 <0>        -0.4845
@<TRIPOS>BOND
     1    1    6 ar
     2    1    2 ar
     3    1   31 1
     4    2    3 ar
     5    3    4 ar
     6    3   30 1
     7    4    9 1
     8    4    5 ar
     9    5    6 ar
    10    5    7 1
    11    7    8 1
    12    7   10 1
    13    8    9 2
    14    8   32 1
    15   10   11 1
    16   10   18 1
    17   10   12 1
    18   12   13 1
    19   12   14 1
    20   12   29 1
    21   14   15 1
    22   14   16 1
    23   14   28 1
    24   16   17 1
    25   16   18 1
    26   16   19 1
    27   19   20 1
    28   19   33 1
    29   19   34 1
    30   20   21 2
    31   20   22 1
    32   20   23 1
    33   23   24 1
    34   24   25 1
    35   24   35 1
    36   24   36 1
    37   25   26 2
    38   25   27 1
    39   25   41 1
    40   28   37 1
    41   29   38 1
    42   30   39 1
    43   30   40 1
@<TRIPOS>MOLECULE
ZINC40794632
   51    53     0     0     0
SMALL
USER_CHARGES

@<TRIPOS>ATOM
      1 C1          0.0937    1.7042    0.1805 C.3       1 <0>        -0.1191
      2 C2          0.1265    0.2022    0.0619 C.ar      1 <0>        -0.0421
      3 C3          0.1944   -0.3914   -1.1847 C.ar      1 <0>        -0.1488
      4 C4          0.2244   -1.7691   -1.2934 C.ar      1 <0>        -0.0188
      5 C5          0.1869   -2.5532   -0.1556 C.ar      1 <0>        -0.6621
      6 C6          0.1199   -1.9596    1.0910 C.ar      1 <0>         0.0006
      7 C7          0.0943   -0.5818    1.2000 C.ar      1 <0>        -0.1478
      8 S1          0.2240   -4.3094   -0.2943 S.o2      1 <0>         2.7236
      9 O1         -0.3717   -4.8229    0.8892 O.2       1 <0>        -0.9629
     10 O2         -0.2635   -4.6247   -1.5912 O.2       1 <0>        -0.9823
     11 N1          1.8145   -4.7696   -0.2617 N.pl3     1 <0>        -0.9463
     12 N2          2.6085   -4.4672    0.8522 N.2       1 <0>        -0.3913
     13 C8          3.8676   -4.8315    0.8780 C.2       1 <0>         0.3661
     14 C9          4.7504   -4.5464    2.0258 C.2       1 <0>        -0.0107
     15 C10         5.8563   -5.3431    2.1619 C.2       1 <0>         0.3370
     16 N3          6.1070   -6.3138    1.2625 N.2       1 <0>        -0.6444
     17 C11         5.4469   -6.4300    0.1473 C.2       1 <0>         0.3301
     18 N4          4.4725   -5.5269   -0.1827 N.2       1 <0>        -0.6920
     19 N5          6.7257   -5.1481    3.2348 N.pl3     1 <0>        -0.5207
     20 N6          7.9128   -5.8874    3.3177 N.pl3     1 <0>        -0.8846
     21 S2          9.3667   -5.1066    3.4554 S.o2      1 <0>         2.6952
     22 O3         10.3496   -6.1118    3.6618 O.2       1 <0>        -0.9584
     23 O4          9.4356   -4.1835    2.3772 O.2       1 <0>        -0.9459
     24 C12         9.3063   -4.1501    4.9340 C.ar      1 <0>        -0.6821
     25 C13         8.8380   -2.8500    4.8975 C.ar      1 <0>        -0.0155
     26 C14         8.7906   -2.0997    6.0575 C.ar      1 <0>        -0.1421
     27 C15         9.2111   -2.6496    7.2541 C.ar      1 <0>        -0.0322
     28 C16         9.6785   -3.9500    7.2907 C.ar      1 <0>        -0.1446
     29 C17         9.7219   -4.7017    6.1314 C.ar      1 <0>        -0.0139
     30 C18         9.1604   -1.8312    8.5185 C.3       1 <0>        -0.1234
     31 N7          4.4703   -3.5101    2.9335 N.pl3     1 <0>        -0.8817
     32 H1          1.1125    2.0854    0.2512 H         1 <0>         0.0747
     33 H2         -0.3924    2.1275   -0.6985 H         1 <0>         0.0678
     34 H3         -0.4626    1.9861    1.0745 H         1 <0>         0.0684
     35 H4          0.2236    0.2213   -2.0736 H         1 <0>         0.1259
     36 H5          0.2767   -2.2329   -2.2674 H         1 <0>         0.1355
     37 H6          0.0903   -2.5723    1.9799 H         1 <0>         0.1409
     38 H7          0.0457   -0.1180    2.1741 H         1 <0>         0.1268
     39 H8          5.6668   -7.2484   -0.5223 H         1 <0>         0.1575
     40 H9          6.5084   -4.5007    3.9236 H         1 <0>         0.4124
     41 H10         7.8832   -6.8567    3.2944 H         1 <0>         0.4224
     42 H11         8.5095   -2.4204    3.9627 H         1 <0>         0.1431
     43 H12         8.4254   -1.0837    6.0289 H         1 <0>         0.1326
     44 H13        10.0074   -4.3795    8.2255 H         1 <0>         0.1312
     45 H14        10.0836   -5.7189    6.1607 H         1 <0>         0.1406
     46 H15         8.1943   -1.9713    9.0035 H         1 <0>         0.0787
     47 H16         9.9549   -2.1530    9.1917 H         1 <0>         0.0710
     48 H17         9.2952   -0.7774    8.2749 H         1 <0>         0.0717
     49 H18         3.7221   -2.9139    2.7732 H         1 <0>         0.3917
     50 H19         5.0253   -3.3912    3.7201 H         1 <0>         0.3705
     51 H20         2.1962   -5.2486   -1.0138 H         1 <0>         0.3975
@<TRIPOS>BOND
     1    1    2 1
     2    1   32 1
     3    1   33 1
     4    1   34 1
     5    2    7 ar
     6    2    3 ar
     7    3    4 ar
     8    3   35 1
     9    4    5 ar
    10    4   36 1
    11    5    6 ar
    12    5    8 1
    13    6    7 ar
    14    6   37 1
    15    7   38 1
    16    8    9 2
    17    8   10 2
    18    8   11 1
    19   11   12 1
    20   11   51 1
    21   12   13 2
    22   13   18 1
    23   13   14 1
    24   14   15 2
    25   14   31 1
    26   15   16 1
    27   15   19 1
    28   16   17 2
    29   17   18 1
    30   17   39 1
    31   19   20 1
    32   19   40 1
    33   20   21 1
    34   20   41 1
    35   21   22 2
    36   21   23 2
    37   21   24 1
    38   24   29 ar
    39   24   25 ar
    40   25   26 ar
    41   25   42 1
    42   26   27 ar
    43   26   43 1
    44   27   28 ar
    45   27   30 1
    46   28   29 ar
    47   28   44 1
    48   29   45 1
    49   30   46 1
    50   30   47 1
    51   30   48 1
    52   31   49 1
    53   31   50 1
@<TRIPOS>MOLECULE
ZINC65748860
   50    52     0     0     0
SMALL
USER_CHARGES

@<TRIPOS>ATOM
      1 C1          2.4007    0.9978   -0.3078 C.3       1 <0>        -0.1208
      2 C2          1.7876   -0.3768   -0.2328 C.ar      1 <0>        -0.0513
      3 C3          0.9891   -0.8321   -1.2672 C.ar      1 <0>        -0.1326
      4 C4          0.4248   -2.0891   -1.2051 C.ar      1 <0>        -0.0507
      5 C5          0.6613   -2.9031   -0.0951 C.ar      1 <0>        -0.1683
      6 C6          1.4685   -2.4373    0.9450 C.ar      1 <0>        -0.0746
      7 C7          2.0304   -1.1800    0.8676 C.ar      1 <0>        -0.1283
      8 C8          0.0597   -4.2509   -0.0214 C.2       1 <0>         0.4468
      9 O1         -0.5278   -4.7079   -0.9828 O.2       1 <0>        -0.4309
     10 C9          0.1718   -5.0416    1.2185 C.ar      1 <0>        -0.1231
     11 C10         0.1582   -4.4015    2.4616 C.ar      1 <0>        -0.0490
     12 C11         0.2626   -5.1418    3.6185 C.ar      1 <0>        -0.0567
     13 C12         0.3816   -6.5240    3.5540 C.ar      1 <0>         0.1724
     14 C13         0.3964   -7.1691    2.3176 C.ar      1 <0>         0.1141
     15 C14         0.2863   -6.4339    1.1539 C.ar      1 <0>        -0.0724
     16 O2          0.5140   -8.5227    2.2583 O.3       1 <0>        -0.2740
     17 C15         0.5221   -9.1168    0.9587 C.3       1 <0>         0.2070
     18 H1         -0.3217   -8.7392    0.3811 H         1 <0>         0.0647
     19 C16         0.4099  -10.6377    1.0919 C.3       1 <0>         0.1125
     20 H2         -0.5404  -10.8932    1.5608 H         1 <0>         0.0697
     21 C17         0.4798  -11.2710   -0.3011 C.3       1 <0>         0.1191
     22 H3         -0.3691  -10.9360   -0.8970 H         1 <0>         0.0797
     23 C18         1.7840  -10.8416   -0.9802 C.3       1 <0>         0.0655
     24 H4          1.8165  -11.2429   -1.9931 H         1 <0>         0.0688
     25 C19         1.8432   -9.3128   -1.0334 C.3       1 <0>        -0.0029
     26 H5          1.0168   -8.9378   -1.6372 H         1 <0>         0.0595
     27 O3          1.7420   -8.7869    0.2915 O.3       1 <0>        -0.3429
     28 C20         3.1502   -8.8815   -1.6471 C.2       1 <0>         0.5065
     29 O4          3.3948   -9.1491   -2.8112 O.co2     1 <0>        -0.6836
     30 O5          3.9630   -8.2649   -0.9796 O.co2     1 <0>        -0.6572
     31 O6          2.8969  -11.3381   -0.2340 O.3       1 <0>        -0.5242
     32 O7          0.4475  -12.6946   -0.1812 O.3       1 <0>        -0.5403
     33 O8          1.4856  -11.1274    1.8950 O.3       1 <0>        -0.5067
     34 O9          0.4842   -7.2490    4.6974 O.3       1 <0>        -0.4544
     35 N1          0.2484   -4.4624    4.9335 N.pl3     1 <0>         0.0418
     36 O10         0.1453   -3.2592    4.9913 O.2       1 <0>        -0.1651
     37 O11         0.3399   -5.1108    5.9498 O.3       1 <0>        -0.1307
     38 H6          3.3736    0.9356   -0.7953 H         1 <0>         0.0767
     39 H7          1.7482    1.6559   -0.8817 H         1 <0>         0.0697
     40 H8          2.5237    1.3963    0.6993 H         1 <0>         0.0709
     41 H9          0.8071   -0.2016   -2.1250 H         1 <0>         0.1309
     42 H10        -0.1988   -2.4430   -2.0128 H         1 <0>         0.1365
     43 H11         1.6554   -3.0616    1.8062 H         1 <0>         0.1340
     44 H12         2.6581   -0.8202    1.6693 H         1 <0>         0.1324
     45 H13         0.0661   -3.3268    2.5147 H         1 <0>         0.1701
     46 H14         0.2932   -6.9326    0.1960 H         1 <0>         0.1613
     47 H15         3.7573  -11.1032   -0.6077 H         1 <0>         0.3766
     48 H16         0.4886  -13.1616   -1.0269 H         1 <0>         0.3789
     49 H17         1.5049  -10.7637    2.7908 H         1 <0>         0.3720
     50 H18        -0.3656   -7.5361    5.0586 H         1 <0>         0.4025
@<TRIPOS>BOND
     1    1    2 1
     2    1   38 1
     3    1   39 1
     4    1   40 1
     5    2    7 ar
     6    2    3 ar
     7    3    4 ar
     8    3   41 1
     9    4    5 ar
    10    4   42 1
    11    5    6 ar
    12    5    8 1
    13    6    7 ar
    14    6   43 1
    15    7   44 1
    16    8    9 2
    17    8   10 1
    18   10   15 ar
    19   10   11 ar
    20   11   12 ar
    21   11   45 1
    22   12   13 ar
    23   12   35 1
    24   13   14 ar
    25   13   34 1
    26   14   15 ar
    27   14   16 1
    28   15   46 1
    29   16   17 1
    30   17   18 1
    31   17   27 1
    32   17   19 1
    33   19   20 1
    34   19   21 1
    35   19   33 1
    36   21   22 1
    37   21   23 1
    38   21   32 1
    39   23   24 1
    40   23   25 1
    41   23   31 1
    42   25   26 1
    43   25   27 1
    44   25   28 1
    45   28   29 2
    46   28   30 1
    47   31   47 1
    48   32   48 1
    49   33   49 1
    50   34   50 1
    51   35   36 2
    52   35   37 1
@<TRIPOS>MOLECULE
ZINC29299263
   44    45     0     0     0
SMALL
USER_CHARGES
methyl 5-[[4-(2-amino-2-oxo-ethoxy)phenyl]carbamoyl]-2,4-dimethyl-1H-pyrrole-3-carboxylate
@<TRIPOS>ATOM
      1 C1          0.1044    1.5860   -0.1237 C.3       1 <0>        -0.0894
      2 C2         -0.6440    1.8685    1.1534 C.2       1 <0>        -0.0198
      3 C3         -2.0381    2.0620    1.2859 C.2       1 <0>        -0.2177
      4 C4         -2.2904    2.2890    2.6264 C.2       1 <0>         0.1144
      5 N1         -1.1240    2.2489    3.2896 N.pl3     1 <0>        -0.5350
      6 H1         -1.1040    2.4108    4.3774 H         1 <0>         0.4488
      7 C5         -0.1043    1.9918    2.3994 C.2       1 <0>        -0.0505
      8 C6          1.3196    1.8705    2.7351 C.2       1 <0>         0.5937
      9 O1          2.1335    1.6398    1.8603 O.2       1 <0>        -0.5075
     10 N2          1.7255    2.0147    4.0122 N.am      1 <0>        -0.6831
     11 C7          3.0656    1.7904    4.3504 C.ar      1 <0>         0.1151
     12 C8          3.7997    0.8233    3.6764 C.ar      1 <0>        -0.0791
     13 C9          5.1228    0.6063    4.0071 C.ar      1 <0>        -0.1888
     14 C10         5.7153    1.3461    5.0200 C.ar      1 <0>         0.1148
     15 C11         4.9811    2.3087    5.6973 C.ar      1 <0>        -0.1264
     16 C12         3.6596    2.5309    5.3640 C.ar      1 <0>        -0.1031
     17 O2          7.0165    1.1280    5.3487 O.3       1 <0>        -0.2896
     18 C13         7.7123    0.1217    4.6103 C.3       1 <0>         0.0365
     19 C14         9.1304    0.0219    5.1104 C.2       1 <0>         0.5204
     20 O3          9.5081    0.7416    6.0105 O.2       1 <0>        -0.5269
     21 N3          9.9791   -0.8671    4.5573 N.am      1 <0>        -0.8744
     22 C15        -3.6440    2.5442    3.2379 C.3       1 <0>        -0.1036
     23 C16        -3.0337    2.0258    0.2016 C.2       1 <0>         0.5468
     24 O4         -3.5734    0.9776   -0.0930 O.2       1 <0>        -0.4968
     25 O5         -3.3464    3.1551   -0.4640 O.3       1 <0>        -0.3516
     26 C17        -4.3361    3.0449   -1.5207 C.3       1 <0>         0.0292
     27 H2         -0.6053    1.5445   -0.9631 H         1 <0>         0.0600
     28 H3          0.6266    0.6218   -0.0370 H         1 <0>         0.0799
     29 H4          0.8382    2.3856   -0.3032 H         1 <0>         0.0812
     30 H5          1.0040    2.3086    4.7888 H         1 <0>         0.4237
     31 H6          3.3372    0.2439    2.8911 H         1 <0>         0.1384
     32 H7          5.6951   -0.1427    3.4799 H         1 <0>         0.1315
     33 H8          5.4431    2.8843    6.4857 H         1 <0>         0.1380
     34 H9          3.0883    3.2805    5.8911 H         1 <0>         0.1338
     35 H10         7.2073   -0.8463    4.7441 H         1 <0>         0.0940
     36 H11         7.7178    0.3879    3.5430 H         1 <0>         0.0946
     37 H12        11.0142   -0.9399    4.9224 H         1 <0>         0.4316
     38 H13         9.6367   -1.5199    3.7408 H         1 <0>         0.4225
     39 H14        -3.5347    2.6895    4.3228 H         1 <0>         0.0782
     40 H15        -4.3006    1.6824    3.0477 H         1 <0>         0.0898
     41 H16        -4.0846    3.4469    2.7895 H         1 <0>         0.0906
     42 H17        -4.4959    4.0326   -1.9778 H         1 <0>         0.1049
     43 H18        -5.2836    2.6785   -1.0989 H         1 <0>         0.0651
     44 H19        -3.9785    2.3402   -2.2859 H         1 <0>         0.0655
@<TRIPOS>BOND
     1    1    2 1
     2    1   27 1
     3    1   28 1
     4    1   29 1
     5    2    7 2
     6    2    3 1
     7    3    4 2
     8    3   23 1
     9    4    5 1
    10    4   22 1
    11    5    6 1
    12    5    7 1
    13    7    8 1
    14    8    9 2
    15    8   10 am
    16   10   11 1
    17   10   30 1
    18   11   16 ar
    19   11   12 ar
    20   12   13 ar
    21   12   31 1
    22   13   14 ar
    23   13   32 1
    24   14   15 ar
    25   14   17 1
    26   15   16 ar
    27   15   33 1
    28   16   34 1
    29   17   18 1
    30   18   19 1
    31   18   35 1
    32   18   36 1
    33   19   20 2
    34   19   21 am
    35   21   37 1
    36   21   38 1
    37   22   39 1
    38   22   40 1
    39   22   41 1
    40   23   24 2
    41   23   25 1
    42   25   26 1
    43   26   42 1
    44   26   43 1
    45   26   44 1
@<TRIPOS>MOLECULE
ZINC41456233
   50    51     0     0     0
SMALL
USER_CHARGES

@<TRIPOS>ATOM
      1 C1          0.4907    0.9396   -0.1161 C.3       1 <0>        -0.1602
      2 C2          0.6877   -0.4876    0.3990 C.3       1 <0>         0.1848
      3 H1         -0.2754   -0.9029    0.6959 H         1 <0>         0.1030
      4 C3          1.2863   -1.3374   -0.6922 C.ar      1 <0>        -0.0780
      5 C4          2.6452   -1.2827   -0.9432 C.ar      1 <0>        -0.1277
      6 C5          3.1984   -2.0611   -1.9431 C.ar      1 <0>        -0.0920
      7 C6          2.3947   -2.8961   -2.6947 C.ar      1 <0>        -0.1172
      8 C7          1.0300   -2.9532   -2.4452 C.ar      1 <0>         0.1503
      9 C8          0.4782   -2.1740   -1.4365 C.ar      1 <0>        -0.1317
     10 N1          0.2130   -3.7977   -3.2051 N.am      1 <0>        -0.6770
     11 C9          0.6955   -4.9705   -3.6613 C.2       1 <0>         0.5103
     12 O1          1.8050   -5.3374   -3.3364 O.2       1 <0>        -0.5225
     13 C10        -0.1435   -5.8261   -4.5751 C.3       1 <0>        -0.1743
     14 N2          1.5887   -0.4699    1.5540 N.am      1 <0>        -0.6923
     15 C11         1.0995   -0.2305    2.7868 C.2       1 <0>         0.5138
     16 O2         -0.0875   -0.0295    2.9401 O.2       1 <0>        -0.5137
     17 C12         2.0180   -0.2124    3.9641 C.2       1 <0>         0.5072
     18 O3          3.2052   -0.4134    3.8108 O.2       1 <0>        -0.4963
     19 N3          1.5287    0.0270    5.1969 N.am      1 <0>        -0.6413
     20 C13         2.4004    0.1496    6.2833 C.ar      1 <0>         0.1231
     21 C14         2.0089   -0.2913    7.5414 C.ar      1 <0>        -0.1167
     22 C15         2.8696   -0.1707    8.6136 C.ar      1 <0>        -0.1255
     23 C16         4.1269    0.3919    8.4350 C.ar      1 <0>         0.1348
     24 C17         4.5184    0.8331    7.1775 C.ar      1 <0>        -0.1006
     25 C18         3.6604    0.7070    6.1038 C.ar      1 <0>        -0.0967
     26 N4          4.9998    0.5146    9.5231 N.am      1 <0>        -0.6743
     27 C19         5.8508    1.5576    9.5900 C.2       1 <0>         0.5096
     28 O4          5.7954    2.4398    8.7594 O.2       1 <0>        -0.5245
     29 C20         6.8711    1.6278   10.6968 C.3       1 <0>        -0.1705
     30 H2          1.4538    1.3548   -0.4130 H         1 <0>         0.0639
     31 H3         -0.1797    0.9264   -0.9754 H         1 <0>         0.0739
     32 H4          0.0578    1.5542    0.6731 H         1 <0>         0.0678
     33 H5          3.2757   -0.6304   -0.3572 H         1 <0>         0.1240
     34 H6          4.2599   -2.0159   -2.1369 H         1 <0>         0.1306
     35 H7          2.8273   -3.5036   -3.4759 H         1 <0>         0.1360
     36 H8         -0.5823   -2.2192   -1.2372 H         1 <0>         0.1295
     37 H9         -0.7005   -3.5390   -3.4035 H         1 <0>         0.4131
     38 H10        -0.3786   -5.2677   -5.4812 H         1 <0>         0.0934
     39 H11         0.4094   -6.7281   -4.8374 H         1 <0>         0.0979
     40 H12        -1.0681   -6.1013   -4.0677 H         1 <0>         0.0923
     41 H13         2.5375   -0.6305    1.4315 H         1 <0>         0.4141
     42 H14         0.5720    0.1143    5.3304 H         1 <0>         0.4234
     43 H15         1.0310   -0.7281    7.6805 H         1 <0>         0.1339
     44 H16         2.5653   -0.5134    9.5915 H         1 <0>         0.1329
     45 H17         5.4959    1.2708    7.0390 H         1 <0>         0.1396
     46 H18         3.9666    1.0457    5.1251 H         1 <0>         0.1385
     47 H19         4.9920   -0.1510   10.2286 H         1 <0>         0.4124
     48 H20         6.7696    0.7540   11.3405 H         1 <0>         0.0790
     49 H21         7.8726    1.6480   10.2669 H         1 <0>         0.1005
     50 H22         6.7092    2.5320   11.2834 H         1 <0>         0.0995
@<TRIPOS>BOND
     1    1    2 1
     2    1   30 1
     3    1   31 1
     4    1   32 1
     5    2    3 1
     6    2    4 1
     7    2   14 1
     8    4    9 ar
     9    4    5 ar
    10    5    6 ar
    11    5   33 1
    12    6    7 ar
    13    6   34 1
    14    7    8 ar
    15    7   35 1
    16    8    9 ar
    17    8   10 1
    18    9   36 1
    19   10   11 am
    20   10   37 1
    21   11   12 2
    22   11   13 1
    23   13   38 1
    24   13   39 1
    25   13   40 1
    26   14   15 am
    27   14   41 1
    28   15   16 2
    29   15   17 1
    30   17   18 2
    31   17   19 am
    32   19   20 1
    33   19   42 1
    34   20   25 ar
    35   20   21 ar
    36   21   22 ar
    37   21   43 1
    38   22   23 ar
    39   22   44 1
    40   23   24 ar
    41   23   26 1
    42   24   25 ar
    43   24   45 1
    44   25   46 1
    45   26   27 am
    46   26   47 1
    47   27   28 2
    48   27   29 1
    49   29   48 1
    50   29   49 1
    51   29   50 1
@<TRIPOS>MOLECULE
ZINC51642221
   46    47     0     0     0
SMALL
USER_CHARGES

@<TRIPOS>ATOM
      1 C1         -1.3345    1.3941   -0.7873 C.3       1 <0>        -0.1509
      2 C2         -1.2123   -0.1308   -0.7590 C.3       1 <0>        -0.1362
      3 C3         -0.0767   -0.5688   -1.6861 C.3       1 <0>         0.1186
      4 N1          0.0403   -2.0288   -1.6590 N.am      1 <0>        -0.7295
      5 C4          0.9800   -2.6435   -2.4043 C.2       1 <0>         0.5540
      6 O1          1.7308   -1.9863   -3.0993 O.2       1 <0>        -0.5127
      7 C5          1.0978   -4.1136   -2.3770 C.ar      1 <0>        -0.1534
      8 C6          0.2319   -4.8715   -1.5830 C.ar      1 <0>        -0.0512
      9 C7          0.3445   -6.2427   -1.5598 C.ar      1 <0>        -0.1562
     10 C8          1.3194   -6.8764   -2.3251 C.ar      1 <0>         0.2017
     11 C9          2.1833   -6.1271   -3.1160 C.ar      1 <0>        -0.1370
     12 C10         2.0725   -4.7535   -3.1498 C.ar      1 <0>         0.0379
     13 Cl1         3.1458   -3.8187   -4.1438 Cl        1 <0>        -0.0219
     14 N2          1.4301   -8.2661   -2.2980 N.am      1 <0>        -0.6794
     15 C11         1.8953   -8.9261   -3.3772 C.2       1 <0>         0.7117
     16 O2          2.3810   -8.3084   -4.3049 O.2       1 <0>        -0.5566
     17 N3          1.8219  -10.2709   -3.4279 N.am      1 <0>        -0.6257
     18 C12         1.1026  -11.0299   -2.3925 C.3       1 <0>         0.0708
     19 C13         2.0239  -12.1437   -1.8818 C.3       1 <0>         0.0463
     20 O3          2.5147  -12.8955   -2.9943 O.3       1 <0>        -0.3459
     21 C14         3.3134  -12.1377   -3.9063 C.3       1 <0>         0.0577
     22 H1          4.1562  -11.6977   -3.3732 H         1 <0>         0.0935
     23 C15         2.4534  -11.0232   -4.5236 C.3       1 <0>         0.1075
     24 C16         3.8248  -13.0414   -4.9984 C.2       1 <0>         0.5273
     25 O4          3.4618  -14.1975   -5.0485 O.2       1 <0>        -0.5126
     26 N4          4.6855  -12.5648   -5.9196 N.am      1 <0>        -0.8488
     27 H2         -0.3984    1.8399   -0.4510 H         1 <0>         0.0586
     28 H3         -1.5486    1.7226   -1.8044 H         1 <0>         0.0587
     29 H4         -2.1435    1.7061   -0.1268 H         1 <0>         0.0608
     30 H5         -0.9982   -0.4593    0.2580 H         1 <0>         0.0688
     31 H6         -2.1483   -0.5766   -1.0953 H         1 <0>         0.0688
     32 H7         -0.2908   -0.2402   -2.7031 H         1 <0>         0.0698
     33 H8          0.8594   -0.1229   -1.3498 H         1 <0>         0.0698
     34 H9         -0.5585   -2.5531   -1.1046 H         1 <0>         0.3977
     35 H10        -0.5244   -4.3811   -0.9882 H         1 <0>         0.1387
     36 H11        -0.3243   -6.8282   -0.9464 H         1 <0>         0.1387
     37 H12         2.9390   -6.6222   -3.7080 H         1 <0>         0.1719
     38 H13         1.1724   -8.7578   -1.5026 H         1 <0>         0.4117
     39 H14         0.8371  -10.3668   -1.5691 H         1 <0>         0.0902
     40 H15         0.1995  -11.4669   -2.8184 H         1 <0>         0.0904
     41 H16         2.8621  -11.7037   -1.3415 H         1 <0>         0.0623
     42 H17         1.4653  -12.8014   -1.2159 H         1 <0>         0.1191
     43 H18         1.6839  -11.4596   -5.1605 H         1 <0>         0.0880
     44 H19         3.0827  -10.3557   -5.1122 H         1 <0>         0.1124
     45 H20         4.9758  -11.6401   -5.8795 H         1 <0>         0.4041
     46 H21         5.0147  -13.1465   -6.6226 H         1 <0>         0.4105
@<TRIPOS>BOND
     1    1    2 1
     2    1   27 1
     3    1   28 1
     4    1   29 1
     5    2    3 1
     6    2   30 1
     7    2   31 1
     8    3    4 1
     9    3   32 1
    10    3   33 1
    11    4    5 am
    12    4   34 1
    13    5    6 2
    14    5    7 1
    15    7   12 ar
    16    7    8 ar
    17    8    9 ar
    18    8   35 1
    19    9   10 ar
    20    9   36 1
    21   10   11 ar
    22   10   14 1
    23   11   12 ar
    24   11   37 1
    25   12   13 1
    26   14   15 am
    27   14   38 1
    28   15   16 2
    29   15   17 am
    30   17   23 1
    31   17   18 1
    32   18   19 1
    33   18   39 1
    34   18   40 1
    35   19   20 1
    36   19   41 1
    37   19   42 1
    38   20   21 1
    39   21   22 1
    40   21   23 1
    41   21   24 1
    42   23   43 1
    43   23   44 1
    44   24   25 2
    45   24   26 am
    46   26   45 1
    47   26   46 1
@<TRIPOS>MOLECULE
ZINC63344588
   47    49     0     0     0
SMALL
USER_CHARGES

@<TRIPOS>ATOM
      1 C1         -1.7547    0.8967   -0.3019 C.3       1 <0>        -0.1134
      2 C2         -0.8437   -0.2937   -0.1469 C.ar      1 <0>        -0.0859
      3 C3         -0.0359   -0.6862   -1.1983 C.ar      1 <0>        -0.0801
      4 C4          0.8016   -1.7778   -1.0609 C.ar      1 <0>        -0.1450
      5 C5          0.8336   -2.4806    0.1298 C.ar      1 <0>         0.0919
      6 C6          0.0224   -2.0872    1.1885 C.ar      1 <0>         0.0894
      7 C7         -0.8128   -0.9875    1.0473 C.ar      1 <0>        -0.0422
      8 N1          0.0512   -2.7962    2.3957 N.pl3     1 <0>        -0.6290
      9 C8          0.1498   -2.1326    3.5647 C.2       1 <0>         0.5556
     10 S1          0.1280   -0.4209    3.5818 S.2       1 <0>        -0.5555
     11 N2          0.2655   -2.8167    4.7201 N.pl3     1 <0>        -0.4595
     12 N3          0.2834   -4.2175    4.7061 N.am      1 <0>        -0.5466
     13 C9          0.3992   -4.9016    5.8616 C.2       1 <0>         0.5087
     14 O1          0.4879   -4.3045    6.9135 O.2       1 <0>        -0.5028
     15 C10         0.4184   -6.4084    5.8465 C.3       1 <0>         0.1118
     16 N4          0.5514   -6.9088    7.2170 N.am      1 <0>        -0.5657
     17 C11         1.7325   -7.1479    7.8266 C.2       1 <0>         0.5402
     18 O2          2.8429   -6.9961    7.3643 O.2       1 <0>        -0.4522
     19 C12         1.3756   -7.6433    9.2048 C.3       1 <0>         0.1193
     20 C13         1.9570   -6.7255   10.2885 C.3       1 <0>        -0.1205
     21 C14         2.3264   -7.6945   11.4416 C.3       1 <0>        -0.1227
     22 C15         2.8448   -8.9454   10.6880 C.3       1 <0>        -0.1236
     23 C16         1.9269   -9.0499    9.4498 C.3       1 <0>        -0.1184
     24 N5         -0.0884   -7.6310    9.2310 N.am      1 <0>        -0.7103
     25 C17        -0.4830   -7.1806    8.0231 C.2       1 <0>         0.7084
     26 O3         -1.6465   -7.0404    7.7007 O.2       1 <0>        -0.5356
     27 F1          1.6512   -3.5477    0.2640 F         1 <0>        -0.1379
     28 H1         -1.2257    1.8008   -0.0002 H         1 <0>         0.0769
     29 H2         -2.0616    0.9861   -1.3440 H         1 <0>         0.0697
     30 H3         -2.6356    0.7644    0.3262 H         1 <0>         0.0701
     31 H4         -0.0595   -0.1391   -2.1292 H         1 <0>         0.1377
     32 H5          1.4311   -2.0821   -1.8841 H         1 <0>         0.1427
     33 H6         -1.4413   -0.6772    1.8689 H         1 <0>         0.1557
     34 H7          0.0001   -3.7648    2.3906 H         1 <0>         0.4028
     35 H8          0.3365   -2.3391    5.5614 H         1 <0>         0.4625
     36 H9          0.2124   -4.6951    3.8648 H         1 <0>         0.4231
     37 H10        -0.5104   -6.7792    5.4129 H         1 <0>         0.1402
     38 H11         1.2619   -6.7550    5.2496 H         1 <0>         0.1377
     39 H12         2.8460   -6.2140    9.9195 H         1 <0>         0.0907
     40 H13         1.2098   -6.0044   10.6198 H         1 <0>         0.0871
     41 H14         3.1106   -7.2684   12.0674 H         1 <0>         0.0802
     42 H15         1.4466   -7.9394   12.0366 H         1 <0>         0.0739
     43 H16         3.8818   -8.8046   10.3832 H         1 <0>         0.0765
     44 H17         2.7469   -9.8341   11.3115 H         1 <0>         0.0781
     45 H18         1.1095   -9.7434    9.6470 H         1 <0>         0.0893
     46 H19         2.5009   -9.3830    8.5851 H         1 <0>         0.0831
     47 H20        -0.6597   -7.8916    9.9703 H         1 <0>         0.4437
@<TRIPOS>BOND
     1    1    2 1
     2    1   28 1
     3    1   29 1
     4    1   30 1
     5    2    7 ar
     6    2    3 ar
     7    3    4 ar
     8    3   31 1
     9    4    5 ar
    10    4   32 1
    11    5    6 ar
    12    5   27 1
    13    6    7 ar
    14    6    8 1
    15    7   33 1
    16    8    9 1
    17    8   34 1
    18    9   10 2
    19    9   11 1
    20   11   12 1
    21   11   35 1
    22   12   13 am
    23   12   36 1
    24   13   14 2
    25   13   15 1
    26   15   16 1
    27   15   37 1
    28   15   38 1
    29   16   25 am
    30   16   17 am
    31   17   18 2
    32   17   19 1
    33   19   23 1
    34   19   20 1
    35   19   24 1
    36   20   21 1
    37   20   39 1
    38   20   40 1
    39   21   22 1
    40   21   41 1
    41   21   42 1
    42   22   23 1
    43   22   43 1
    44   22   44 1
    45   23   45 1
    46   23   46 1
    47   24   25 am
    48   24   47 1
    49   25   26 2
@<TRIPOS>MOLECULE
ZINC67386235
   48    48     0     0     0
SMALL
USER_CHARGES

@<TRIPOS>ATOM
      1 C1         -0.0187    1.5258    0.0104 C.3       1 <0>        -0.1669
      2 C2          0.0021   -0.0041    0.0020 C.3       1 <0>         0.1130
      3 N1          0.6878   -0.4765   -1.2033 N.am      1 <0>        -0.7250
      4 C3          0.8268   -1.7986   -1.4250 C.2       1 <0>         0.5109
      5 O1          0.3843   -2.5972   -0.6267 O.2       1 <0>        -0.5351
      6 C4          1.5322   -2.2846   -2.6649 C.3       1 <0>         0.1450
      7 H1          2.5548   -1.9074   -2.6726 H         1 <0>         0.1170
      8 C5          0.7922   -1.7778   -3.9044 C.3       1 <0>        -0.1604
      9 N2          1.5521   -3.7495   -2.6730 N.am      1 <0>        -0.7298
     10 C6          2.5108   -4.4067   -3.3552 C.2       1 <0>         0.7120
     11 O2          3.3592   -3.7838   -3.9639 O.2       1 <0>        -0.5859
     12 N3          2.5291   -5.7543   -3.3626 N.am      1 <0>        -0.7402
     13 C7          3.5712   -6.4687   -4.1041 C.3       1 <0>         0.2015
     14 H2          4.5049   -5.9089   -4.0491 H         1 <0>         0.1034
     15 C8          3.1483   -6.6125   -5.5675 C.3       1 <0>        -0.1600
     16 C9          3.7689   -7.8358   -3.5017 C.ar      1 <0>        -0.1124
     17 C10         2.6757   -8.5714   -3.0830 C.ar      1 <0>        -0.0570
     18 C11         2.8570   -9.8252   -2.5305 C.ar      1 <0>        -0.1330
     19 C12         4.1316  -10.3440   -2.3969 C.ar      1 <0>        -0.0163
     20 C13         5.2244   -9.6091   -2.8162 C.ar      1 <0>        -0.6721
     21 C14         5.0427   -8.3566   -3.3729 C.ar      1 <0>        -0.0094
     22 S1          6.8488  -10.2700   -2.6454 S.o2      1 <0>         2.6958
     23 O3          7.7369   -9.1613   -2.6116 O.2       1 <0>        -0.9517
     24 O4          6.7886  -11.2301   -1.5996 O.2       1 <0>        -0.9561
     25 N4          7.1864  -11.1047   -4.0353 N.pl3     1 <0>        -1.1195
     26 C15         7.2899  -10.3918   -5.3110 C.3       1 <0>         0.0812
     27 H3          1.0039    1.9031    0.0027 H         1 <0>         0.0635
     28 H4         -0.5459    1.8868   -0.8726 H         1 <0>         0.0633
     29 H5         -0.5289    1.8773    0.9072 H         1 <0>         0.0765
     30 H6          0.5293   -0.3651    0.8851 H         1 <0>         0.0695
     31 H7         -1.0205   -0.3814    0.0098 H         1 <0>         0.0696
     32 H8          1.0417    0.1622   -1.8418 H         1 <0>         0.4040
     33 H9         -0.2304   -2.1551   -3.8967 H         1 <0>         0.0635
     34 H10         0.7774   -0.6879   -3.8984 H         1 <0>         0.0717
     35 H11         1.3024   -2.1293   -4.8012 H         1 <0>         0.0775
     36 H12         0.8752   -4.2464   -2.1873 H         1 <0>         0.4059
     37 H13         1.8522   -6.2512   -2.8769 H         1 <0>         0.3963
     38 H14         3.9237   -7.1440   -6.1192 H         1 <0>         0.0696
     39 H15         2.2146   -7.1723   -5.6225 H         1 <0>         0.0588
     40 H16         3.0053   -5.6237   -6.0032 H         1 <0>         0.0703
     41 H17         1.6801   -8.1661   -3.1874 H         1 <0>         0.1301
     42 H18         2.0031  -10.3995   -2.2028 H         1 <0>         0.1370
     43 H19         4.2733  -11.3235   -1.9645 H         1 <0>         0.1428
     44 H20         5.8963   -7.7838   -3.7040 H         1 <0>         0.1442
     45 H21         7.3156  -12.0655   -4.0048 H         1 <0>         0.4206
     46 H22         6.3449   -9.8932   -5.5263 H         1 <0>         0.0600
     47 H23         8.0862   -9.6502   -5.2492 H         1 <0>         0.0710
     48 H24         7.5156  -11.1018   -6.1067 H         1 <0>         0.0854
@<TRIPOS>BOND
     1    1    2 1
     2    1   27 1
     3    1   28 1
     4    1   29 1
     5    2    3 1
     6    2   30 1
     7    2   31 1
     8    3    4 am
     9    3   32 1
    10    4    5 2
    11    4    6 1
    12    6    7 1
    13    6    8 1
    14    6    9 1
    15    8   33 1
    16    8   34 1
    17    8   35 1
    18    9   10 am
    19    9   36 1
    20   10   11 2
    21   10   12 am
    22   12   13 1
    23   12   37 1
    24   13   14 1
    25   13   15 1
    26   13   16 1
    27   15   38 1
    28   15   39 1
    29   15   40 1
    30   16   21 ar
    31   16   17 ar
    32   17   18 ar
    33   17   41 1
    34   18   19 ar
    35   18   42 1
    36   19   20 ar
    37   19   43 1
    38   20   21 ar
    39   20   22 1
    40   21   44 1
    41   22   23 2
    42   22   24 2
    43   22   25 1
    44   25   26 1
    45   25   45 1
    46   26   46 1
    47   26   47 1
    48   26   48 1
@<TRIPOS>MOLECULE
ZINC13417892
   44    46     0     0     0
SMALL
USER_CHARGES
5-methyl-3-[(1S)-1-methyl-2-oxo-2-[(4-sulfamoylphenyl)amino]ethyl]-4-oxo-thieno[5,4-d]pyrimidine-6-carboxylic acid
@<TRIPOS>ATOM
      1 C1          4.8985   -0.2902   -0.0238 C.3       1 <0>        -0.1026
      2 C2          3.5107   -0.8776   -0.0237 C.2       1 <0>        -0.0601
      3 C3          2.3954   -0.0377   -0.0150 C.2       1 <0>        -0.2219
      4 C4          1.1378   -0.6839   -0.0161 C.2       1 <0>         0.0471
      5 N1          0.0002   -0.0012   -0.0080 N.2       1 <0>        -0.4722
      6 C5         -0.0147    1.3040    0.0013 C.2       1 <0>         0.3764
      7 N2          1.1278    2.0339    0.0033 N.am      1 <0>        -0.5213
      8 C6          2.3382    1.4420   -0.0047 C.2       1 <0>         0.5611
      9 O1          3.3589    2.1068   -0.0032 O.2       1 <0>        -0.5193
     10 C7          1.0446    3.4965    0.0135 C.3       1 <0>         0.1021
     11 H1          2.0500    3.9176    0.0137 H         1 <0>         0.1478
     12 C8          0.2923    3.9732   -1.2306 C.3       1 <0>        -0.1615
     13 C9          0.3100    3.9493    1.2490 C.2       1 <0>         0.5075
     14 O2         -0.1033    3.1308    2.0429 O.2       1 <0>        -0.4911
     15 N3          0.1124    5.2637    1.4717 N.am      1 <0>        -0.6700
     16 C10        -0.6525    5.6805    2.5668 C.ar      1 <0>         0.2077
     17 C11        -1.4542    6.8100    2.4660 C.ar      1 <0>        -0.1651
     18 C12        -2.2131    7.2149    3.5466 C.ar      1 <0>         0.0013
     19 C13        -2.1655    6.5043    4.7319 C.ar      1 <0>        -0.6930
     20 C14        -1.3634    5.3828    4.8374 C.ar      1 <0>         0.0037
     21 C15        -0.6072    4.9689    3.7584 C.ar      1 <0>        -0.1430
     22 S1         -3.1292    7.0288    6.1106 S.o2      1 <0>         2.7032
     23 O3         -4.2104    7.7868    5.5856 O.2       1 <0>        -0.9652
     24 O4         -3.3278    5.8827    6.9268 O.2       1 <0>        -0.9622
     25 N4         -2.1971    8.0791    6.9883 N.pl3     1 <0>        -1.2506
     26 S2          1.5647   -2.4068   -0.0291 S.3       1 <0>         0.1960
     27 C16         3.3409   -2.2320   -0.0326 C.2       1 <0>        -0.1553
     28 C17         4.3626   -3.2811   -0.0428 C.2       1 <0>         0.5297
     29 O5          5.5415   -2.9820   -0.0443 O.co2     1 <0>        -0.5999
     30 H2          5.2302   -0.1420   -1.0515 H         1 <0>         0.0623
     31 H3          4.8878    0.6676    0.4963 H         1 <0>         0.0653
     32 H4          5.5814   -0.9716    0.4836 H         1 <0>         0.0933
     33 H5         -0.9648    1.8175    0.0031 H         1 <0>         0.1994
     34 H6         -0.7131    3.5521   -1.2308 H         1 <0>         0.0744
     35 H7          0.2304    5.0614   -1.2230 H         1 <0>         0.0847
     36 H8          0.8236    3.6457   -2.1242 H         1 <0>         0.0863
     37 H9          0.5004    5.9208    0.8729 H         1 <0>         0.4188
     38 H10        -1.4879    7.3683    1.5421 H         1 <0>         0.1400
     39 H11        -2.8411    8.0900    3.4671 H         1 <0>         0.1480
     40 H12        -1.3286    4.8298    5.7644 H         1 <0>         0.1478
     41 H13         0.0185    4.0925    3.8412 H         1 <0>         0.1512
     42 H14        -1.2968    8.2899    6.6951 H         1 <0>         0.4168
     43 H15        -2.5514    8.4836    7.7957 H         1 <0>         0.4205
     44 O6          3.9961   -4.5794   -0.0507 O.co2     1 <0>        -0.7379
@<TRIPOS>BOND
     1    1    2 1
     2    1   30 1
     3    1   31 1
     4    1   32 1
     5    2   27 2
     6    2    3 1
     7    3    8 1
     8    3    4 2
     9    4    5 1
    10    4   26 1
    11    5    6 2
    12    6    7 1
    13    6   33 1
    14    7    8 am
    15    7   10 1
    16    8    9 2
    17   10   11 1
    18   10   12 1
    19   10   13 1
    20   12   34 1
    21   12   35 1
    22   12   36 1
    23   13   14 2
    24   13   15 am
    25   15   16 1
    26   15   37 1
    27   16   21 ar
    28   16   17 ar
    29   17   18 ar
    30   17   38 1
    31   18   19 ar
    32   18   39 1
    33   19   20 ar
    34   19   22 1
    35   20   21 ar
    36   20   40 1
    37   21   41 1
    38   22   23 2
    39   22   24 2
    40   22   25 1
    41   25   42 1
    42   25   43 1
    43   26   27 1
    44   27   28 1
    45   28   29 2
    46   28   44 1
@<TRIPOS>MOLECULE
ZINC06135574
   47    49     0     0     0
SMALL
USER_CHARGES

@<TRIPOS>ATOM
      1 C1          3.4014    1.9262   -1.9609 C.3       1 <0>        -0.1583
      2 C2          1.9699    1.6793   -1.4805 C.3       1 <0>         0.0953
      3 N1          1.5500    0.3308   -1.8696 N.am      1 <0>        -0.5003
      4 C3          0.9513    0.1343   -3.0610 C.2       1 <0>         0.5528
      5 C4          0.5500   -1.1622   -3.4299 C.2       1 <0>        -0.4089
      6 C5          0.7768   -2.1957   -2.5699 C.2       1 <0>         0.4566
      7 O1          0.4020   -3.4498   -2.8997 O.3       1 <0>        -0.6732
      8 N2          1.3892   -1.9511   -1.3673 N.pl3     1 <0>        -0.5924
      9 H1          1.5527   -2.6831   -0.7522 H         1 <0>         0.4299
     10 C6          1.7698   -0.7033   -1.0372 C.2       1 <0>         0.5546
     11 S1          2.5392   -0.4264    0.4669 S.2       1 <0>        -0.6511
     12 C7         -0.1216   -1.4057   -4.7568 C.3       1 <0>         0.1638
     13 C8         -1.0677   -2.5722   -4.6343 C.ar      1 <0>         0.2549
     14 C9         -1.8205   -2.7236   -3.4849 C.ar      1 <0>        -0.0422
     15 C10        -2.6878   -3.8002   -3.3824 C.ar      1 <0>        -0.0435
     16 C11        -2.7659   -4.6883   -4.4445 C.ar      1 <0>        -0.1410
     17 C12        -1.9823   -4.4722   -5.5619 C.ar      1 <0>         0.0751
     18 N3         -1.1719   -3.4338   -5.6271 N.ar      1 <0>        -0.4443
     19 C13        -0.8911   -0.1754   -5.1636 C.2       1 <0>        -0.4090
     20 C14        -0.7237    0.3661   -6.4037 C.2       1 <0>         0.4769
     21 O2          0.1347   -0.1957   -7.2810 O.3       1 <0>        -0.6654
     22 N4         -1.4346    1.4858   -6.7529 N.pl3     1 <0>        -0.5910
     23 C15        -2.2913    2.0489   -5.8813 C.2       1 <0>         0.5578
     24 S2         -3.1665    3.4461   -6.3423 S.2       1 <0>        -0.6544
     25 N5         -2.4707    1.5298   -4.6529 N.am      1 <0>        -0.4994
     26 C16        -1.7962    0.4269   -4.2714 C.2       1 <0>         0.5569
     27 O3         -1.9658   -0.0421   -3.1593 O.2       1 <0>        -0.5563
     28 C17        -3.4099    2.1649   -3.7251 C.3       1 <0>         0.0948
     29 C18        -4.8004    1.5538   -3.9091 C.3       1 <0>        -0.1562
     30 O4          0.7586    1.0737   -3.8133 O.2       1 <0>        -0.5243
     31 H2          4.0684    1.1930   -1.5075 H         1 <0>         0.0655
     32 H3          3.4418    1.8321   -3.0461 H         1 <0>         0.0564
     33 H4          3.7138    2.9296   -1.6714 H         1 <0>         0.0714
     34 H5          1.9296    1.7735   -0.3953 H         1 <0>         0.1128
     35 H6          1.3029    2.4126   -1.9339 H         1 <0>         0.0931
     36 H7          0.6335   -1.6278   -5.5109 H         1 <0>         0.0938
     37 H8         -1.7337   -2.0123   -2.6769 H         1 <0>         0.1826
     38 H9         -3.2881   -3.9440   -2.4962 H         1 <0>         0.1528
     39 H10        -3.4306   -5.5383   -4.3988 H         1 <0>         0.1619
     40 H11        -2.0373   -5.1593   -6.3934 H         1 <0>         0.1869
     41 H12        -3.0744    2.0028   -2.7008 H         1 <0>         0.0937
     42 H13        -3.4535    3.2349   -3.9281 H         1 <0>         0.1126
     43 H14        -5.1359    1.7158   -4.9335 H         1 <0>         0.0651
     44 H15        -4.7567    0.4837   -3.7061 H         1 <0>         0.0525
     45 H16        -5.4992    2.0263   -3.2189 H         1 <0>         0.0713
     46 H17        -1.3189    1.8746   -7.6340 H         1 <0>         0.4297
     47 H18        -0.6353   -3.3026   -6.4245 H         1 <0>         0.4393
@<TRIPOS>BOND
     1    1    2 1
     2    1   31 1
     3    1   32 1
     4    1   33 1
     5    2    3 1
     6    2   34 1
     7    2   35 1
     8    3   10 1
     9    3    4 am
    10    4    5 1
    11    4   30 2
    12    5    6 2
    13    5   12 1
    14    6    7 1
    15    6    8 1
    16    8    9 1
    17    8   10 1
    18   10   11 2
    19   12   13 1
    20   12   36 1
    21   12   19 1
    22   13   18 ar
    23   13   14 ar
    24   14   15 ar
    25   14   37 1
    26   15   16 ar
    27   15   38 1
    28   16   17 ar
    29   16   39 1
    30   17   18 ar
    31   17   40 1
    32   18   47 1
    33   19   20 2
    34   19   26 1
    35   20   21 1
    36   20   22 1
    37   22   23 1
    38   22   46 1
    39   23   25 1
    40   23   24 2
    41   25   26 am
    42   25   28 1
    43   26   27 2
    44   28   29 1
    45   28   41 1
    46   28   42 1
    47   29   43 1
    48   29   44 1
    49   29   45 1
@<TRIPOS>MOLECULE
ZINC39558530
   44    45     0     0     0
SMALL
USER_CHARGES

@<TRIPOS>ATOM
      1 C1         -0.0083    1.4584    0.0128 C.3       1 <0>         0.0846
      2 N1          0.0023   -0.0065    0.0008 N.pl3     1 <0>        -0.9790
      3 C2          0.0238   -0.7492    1.2634 C.3       1 <0>         0.1066
      4 C3         -1.3841   -0.9075    1.7772 C.2       1 <0>         0.4842
      5 O1         -2.3139   -0.4454    1.1504 O.2       1 <0>        -0.4966
      6 N2         -1.6099   -1.5626    2.9332 N.am      1 <0>        -0.6660
      7 C4         -2.9047   -1.6263    3.4598 C.ar      1 <0>         0.1654
      8 C5         -3.0983   -1.5953    4.8354 C.ar      1 <0>        -0.2470
      9 C6         -4.3761   -1.6587    5.3563 C.ar      1 <0>        -0.0520
     10 C7         -5.4658   -1.7526    4.5119 C.ar      1 <0>        -0.2745
     11 C8         -5.2791   -1.7837    3.1354 C.ar      1 <0>         0.2975
     12 C9         -3.9966   -1.7148    2.6089 C.ar      1 <0>        -0.1743
     13 N3         -6.3810   -1.8786    2.2824 N.2       1 <0>        -1.1045
     14 S1         -7.9110   -1.9543    2.9114 S.o2      1 <0>         2.7154
     15 O2         -8.0010   -3.1865    3.6134 O.2       1 <0>        -1.0590
     16 O3         -8.1556   -0.7018    3.5364 O.2       1 <0>        -1.0583
     17 N4         -8.9606   -2.0591    1.6348 N.pl3     1 <0>        -1.2511
     18 S2         -0.0102   -0.8228   -1.4399 S.o2      1 <0>         2.6888
     19 O4         -0.5483   -2.1105   -1.1725 O.2       1 <0>        -0.9363
     20 O5         -0.5797    0.0565   -2.4000 O.2       1 <0>        -0.9413
     21 C10         1.6689   -1.0674   -1.9147 C.ar      1 <0>        -0.6546
     22 C11         2.3118   -0.1161   -2.6869 C.ar      1 <0>        -0.0192
     23 C12         3.6262   -0.3011   -3.0621 C.ar      1 <0>        -0.0918
     24 C13         4.3082   -1.4515   -2.6604 C.ar      1 <0>         0.0258
     25 C14         3.6535   -2.4072   -1.8808 C.ar      1 <0>        -0.0909
     26 C15         2.3403   -2.2070   -1.5087 C.ar      1 <0>        -0.0207
     27 C16         5.6727   -1.6504   -3.0467 C.1       1 <0>         0.2463
     28 N5          6.7552   -1.8083   -3.3530 N.1       1 <0>        -0.3977
     29 H1          1.0167    1.8292    0.0027 H         1 <0>         0.0574
     30 H2         -0.5361    1.8252   -0.8675 H         1 <0>         0.0871
     31 H3         -0.5133    1.8108    0.9123 H         1 <0>         0.0828
     32 H4          0.4632   -1.7331    1.0987 H         1 <0>         0.1115
     33 H5          0.6187   -0.2036    1.9958 H         1 <0>         0.1155
     34 H6         -0.8748   -1.9899    3.4001 H         1 <0>         0.4032
     35 H7         -2.2487   -1.5219    5.4981 H         1 <0>         0.1037
     36 H8         -4.5238   -1.6351    6.4259 H         1 <0>         0.1053
     37 H9         -6.4635   -1.8024    4.9223 H         1 <0>         0.0966
     38 H10        -3.8490   -1.7343    1.5392 H         1 <0>         0.1310
     39 H11        -8.6203   -2.0661    0.7265 H         1 <0>         0.4092
     40 H12        -9.9157   -2.1136    1.7954 H         1 <0>         0.4009
     41 H13         1.7831    0.7732   -2.9969 H         1 <0>         0.1531
     42 H14         4.1266    0.4418   -3.6655 H         1 <0>         0.1442
     43 H15         4.1752   -3.2991   -1.5668 H         1 <0>         0.1449
     44 H16         1.8340   -2.9434   -0.9024 H         1 <0>         0.1537
@<TRIPOS>BOND
     1    1    2 1
     2    1   29 1
     3    1   30 1
     4    1   31 1
     5    2    3 1
     6    2   18 1
     7    3    4 1
     8    3   32 1
     9    3   33 1
    10    4    5 2
    11    4    6 am
    12    6    7 1
    13    6   34 1
    14    7   12 ar
    15    7    8 ar
    16    8    9 ar
    17    8   35 1
    18    9   10 ar
    19    9   36 1
    20   10   11 ar
    21   10   37 1
    22   11   12 ar
    23   11   13 1
    24   12   38 1
    25   13   14 1
    26   14   15 2
    27   14   16 2
    28   14   17 1
    29   17   39 1
    30   17   40 1
    31   18   19 2
    32   18   20 2
    33   18   21 1
    34   21   26 ar
    35   21   22 ar
    36   22   23 ar
    37   22   41 1
    38   23   24 ar
    39   23   42 1
    40   24   25 ar
    41   24   27 1
    42   25   26 ar
    43   25   43 1
    44   26   44 1
    45   27   28 3
@<TRIPOS>MOLECULE
ZINC55620423
   38    39     0     0     0
SMALL
USER_CHARGES

@<TRIPOS>ATOM
      1 C1         -1.9709   -5.1258    3.1393 C.3       1 <0>         0.0899
      2 N1         -1.3211   -4.3806    2.0583 N.am      1 <0>        -0.7375
      3 C2         -0.7150   -5.0426    1.0528 C.2       1 <0>         0.5582
      4 O1         -0.7076   -6.2582    1.0430 O.2       1 <0>        -0.5352
      5 C3         -0.0594   -4.2907   -0.0377 C.ar      1 <0>        -0.0856
      6 C4         -0.0618   -2.8945   -0.0255 C.ar      1 <0>        -0.1871
      7 C5          0.5502   -2.1945   -1.0446 C.ar      1 <0>        -0.0757
      8 C6          1.1678   -2.8715   -2.0813 C.ar      1 <0>        -0.0745
      9 C7          1.1758   -4.2625   -2.1021 C.ar      1 <0>         0.2824
     10 C8          0.5685   -4.9740   -1.0796 C.ar      1 <0>        -0.1898
     11 N2          1.8006   -4.9423   -3.1516 N.2       1 <0>        -1.0724
     12 S1          1.9281   -6.5929   -3.1093 S.o2      1 <0>         2.6314
     13 O2          2.7020   -6.9111   -1.9608 O.2       1 <0>        -1.0316
     14 O3          0.6189   -7.1067   -3.3121 O.2       1 <0>        -1.0255
     15 C9          2.8818   -7.0778   -4.5093 C.2       1 <0>        -0.6897
     16 C10         2.3826   -7.3872   -5.7783 C.2       1 <0>        -0.0432
     17 C11         3.4632   -7.7131   -6.5702 C.2       1 <0>        -0.0806
     18 N3          4.5945   -7.6026   -5.7940 N.pl3     1 <0>        -0.4095
     19 C12         4.2292   -7.2112   -4.5489 C.2       1 <0>         0.1338
     20 C13         5.9659   -7.8592   -6.2411 C.3       1 <0>         0.0656
     21 C14         3.4157   -8.1067   -7.9824 C.2       1 <0>         0.6025
     22 O4          4.4326   -8.4594   -8.5503 O.2       1 <0>        -0.5597
     23 N4          2.2458   -8.0779   -8.6511 N.am      1 <0>        -0.8432
     24 Cl1         1.9345   -1.9824   -3.3601 Cl        1 <0>        -0.0837
     25 H1         -2.7593   -5.7540    2.7247 H         1 <0>         0.0570
     26 H2         -1.2343   -5.7521    3.6426 H         1 <0>         0.0570
     27 H3         -2.4024   -4.4259    3.8548 H         1 <0>         0.0712
     28 H4         -1.3270   -3.4106    2.0661 H         1 <0>         0.4013
     29 H5         -0.5431   -2.3624    0.7817 H         1 <0>         0.1140
     30 H6          0.5470   -1.1146   -1.0334 H         1 <0>         0.1213
     31 H7          0.5774   -6.0539   -1.0914 H         1 <0>         0.1204
     32 H8          1.3460   -7.3739   -6.0809 H         1 <0>         0.1550
     33 H9          4.9022   -7.0370   -3.7224 H         1 <0>         0.1853
     34 H10         6.3648   -6.9655   -6.7209 H         1 <0>         0.0777
     35 H11         6.5855   -8.1179   -5.3825 H         1 <0>         0.0860
     36 H12         5.9676   -8.6850   -6.9524 H         1 <0>         0.1001
     37 H13         1.4499   -7.7278   -8.2211 H         1 <0>         0.4073
     38 H14         2.1998   -8.4072   -9.5623 H         1 <0>         0.4069
@<TRIPOS>BOND
     1    1    2 1
     2    1   25 1
     3    1   26 1
     4    1   27 1
     5    2    3 am
     6    2   28 1
     7    3    4 2
     8    3    5 1
     9    5   10 ar
    10    5    6 ar
    11    6    7 ar
    12    6   29 1
    13    7    8 ar
    14    7   30 1
    15    8    9 ar
    16    8   24 1
    17    9   10 ar
    18    9   11 1
    19   10   31 1
    20   11   12 1
    21   12   13 2
    22   12   14 2
    23   12   15 1
    24   15   19 2
    25   15   16 1
    26   16   17 2
    27   16   32 1
    28   17   18 1
    29   17   21 1
    30   18   19 1
    31   18   20 1
    32   19   33 1
    33   20   34 1
    34   20   35 1
    35   20   36 1
    36   21   22 2
    37   21   23 am
    38   23   37 1
    39   23   38 1
@<TRIPOS>MOLECULE
ZINC65743102
   41    43     0     0     0
SMALL
USER_CHARGES

@<TRIPOS>ATOM
      1 C1         -0.0175    1.4390    0.0100 C.3       1 <0>         0.0227
      2 C2          1.4700    1.8538   -0.0020 C.3       1 <0>         0.0436
      3 H1          1.8280    2.0196    1.0141 H         1 <0>         0.1082
      4 C3          2.1936    0.6490   -0.6397 C.3       1 <0>         0.0605
      5 H2          2.7092    0.9307   -1.5579 H         1 <0>         0.1298
      6 C4          1.0555   -0.3736   -0.9118 C.3       1 <0>         0.0612
      7 H3          0.7423   -0.4068   -1.9553 H         1 <0>         0.1240
      8 O1          0.0021   -0.0041    0.0020 O.3       1 <0>        -0.3487
      9 C5          1.6816   -1.7038   -0.4164 C.3       1 <0>         0.0183
     10 H4          2.2872   -2.1661   -1.1960 H         1 <0>         0.1424
     11 C6          2.5660   -1.2051    0.7530 C.3       1 <0>         0.0319
     12 O2          3.0927    0.0746    0.3124 O.3       1 <0>        -0.3343
     13 O3          0.6738   -2.6040    0.0485 O.3       1 <0>        -0.1903
     14 N1          1.0475   -3.9684   -0.0130 N.pl3     1 <0>         0.1248
     15 O4          2.1384   -4.2781   -0.4323 O.2       1 <0>        -0.1300
     16 O5          0.2758   -4.8237    0.3539 O.3       1 <0>        -0.0703
     17 O6          1.6553    3.0285   -0.7943 O.3       1 <0>        -0.3499
     18 C7          1.5645    4.2482   -0.0553 C.3       1 <0>         0.2217
     19 H5          0.6549    4.2426    0.5452 H         1 <0>         0.0537
     20 C8          1.5281    5.4317   -1.0259 C.3       1 <0>         0.1033
     21 H6          2.4183    5.4146   -1.6546 H         1 <0>         0.0889
     22 C9          1.4916    6.7373   -0.2256 C.3       1 <0>         0.1265
     23 H7          0.5768    6.7770    0.3658 H         1 <0>         0.0729
     24 C10         2.7066    6.7865    0.7059 C.3       1 <0>         0.0630
     25 H8          2.6593    7.6865    1.3190 H         1 <0>         0.0773
     26 C11         2.6974    5.5508    1.6095 C.3       1 <0>        -0.0023
     27 H9          1.8028    5.5622    2.2320 H         1 <0>         0.0614
     28 O7          2.7010    4.3716    0.8022 O.3       1 <0>        -0.3515
     29 C12         3.9215    5.5619    2.4885 C.2       1 <0>         0.5042
     30 O8          4.0653    6.4398    3.3223 O.co2     1 <0>        -0.6852
     31 O9          4.7679    4.6930    2.3660 O.co2     1 <0>        -0.6565
     32 O10         3.9048    6.8015   -0.0726 O.3       1 <0>        -0.5482
     33 O11         1.5294    7.8490   -1.1227 O.3       1 <0>        -0.5438
     34 O12         0.3619    5.3404   -1.8467 O.3       1 <0>        -0.5534
     35 H10        -0.5068    1.8069    0.9118 H         1 <0>         0.1063
     36 H11        -0.5239    1.8165   -0.8784 H         1 <0>         0.0804
     37 H12         1.9667   -1.0819    1.6551 H         1 <0>         0.0842
     38 H13         3.3839   -1.9027    0.9333 H         1 <0>         0.1090
     39 H14         4.7154    6.8325    0.4537 H         1 <0>         0.3864
     40 H15         1.5092    8.7100   -0.6830 H         1 <0>         0.3780
     41 H16         0.3175    4.5342   -2.3787 H         1 <0>         0.3799
@<TRIPOS>BOND
     1    1    8 1
     2    1    2 1
     3    1   35 1
     4    1   36 1
     5    2    3 1
     6    2    4 1
     7    2   17 1
     8    4    5 1
     9    4   12 1
    10    4    6 1
    11    6    7 1
    12    6    8 1
    13    6    9 1
    14    9   10 1
    15    9   11 1
    16    9   13 1
    17   11   12 1
    18   11   37 1
    19   11   38 1
    20   13   14 1
    21   14   15 2
    22   14   16 1
    23   17   18 1
    24   18   19 1
    25   18   28 1
    26   18   20 1
    27   20   21 1
    28   20   22 1
    29   20   34 1
    30   22   23 1
    31   22   24 1
    32   22   33 1
    33   24   25 1
    34   24   26 1
    35   24   32 1
    36   26   27 1
    37   26   28 1
    38   26   29 1
    39   29   30 2
    40   29   31 1
    41   32   39 1
    42   33   40 1
    43   34   41 1
@<TRIPOS>MOLECULE
ZINC21327332
   45    47     0     0     0
SMALL
USER_CHARGES
2-[[4-amino-5-(N'-cyclohexylidenehydrazino)-1,2,4-triazol-3-yl]sulfanyl]-N-(4-methylthiazol-2-yl)acetamide
@<TRIPOS>ATOM
      1 C1          0.2430    3.0008   -0.3704 C.3       1 <0>        -0.0826
      2 C2         -0.4992    3.2108    0.9241 C.2       1 <0>         0.0811
      3 C3          0.1652    3.2575    2.1047 C.2       1 <0>        -0.2644
      4 S1         -1.1911    3.5175    3.2387 S.3       1 <0>         0.1503
      5 C4         -2.4684    3.5374    2.0625 C.2       1 <0>         0.2883
      6 N1         -1.8095    3.3587    0.9341 N.2       1 <0>        -0.5442
      7 N2         -3.8342    3.7045    2.2592 N.am      1 <0>        -0.6176
      8 C5         -4.3191    3.8812    3.5042 C.2       1 <0>         0.5411
      9 O1         -3.5637    3.8944    4.4530 O.2       1 <0>        -0.4873
     10 C6         -5.7999    4.0624    3.7175 C.3       1 <0>        -0.1411
     11 S2         -6.1343    4.2753    5.4876 S.3       1 <0>         0.0801
     12 C7         -7.8833    4.4723    5.5704 C.2       1 <0>         0.1700
     13 N3         -8.7089    4.4655    4.5514 N.2       1 <0>        -0.3039
     14 N4        -10.0071    4.6491    5.0450 N.2       1 <0>        -0.3151
     15 C8         -9.9316    4.7711    6.3479 C.2       1 <0>         0.4910
     16 N5         -8.6168    4.6650    6.7066 N.pl3     1 <0>        -0.2634
     17 N6         -8.1231    4.7380    7.9782 N.3       1 <0>        -0.7780
     18 N7        -10.9995    4.9727    7.2119 N.pl3     1 <0>        -0.5690
     19 N8        -12.3028    5.0628    6.7057 N.2       1 <0>        -0.2009
     20 C9        -13.2747    5.3510    7.4876 C.2       1 <0>         0.0903
     21 C10       -13.0230    5.7352    8.9289 C.3       1 <0>        -0.1177
     22 C11       -13.7595    7.0536    9.2127 C.3       1 <0>        -0.1107
     23 C12       -15.2375    6.8956    8.8520 C.3       1 <0>        -0.1243
     24 C13       -15.3803    6.6384    7.3509 C.3       1 <0>        -0.1178
     25 C14       -14.7045    5.3099    6.9955 C.3       1 <0>        -0.0592
     26 H1          1.3188    2.9004   -0.1641 H         1 <0>         0.0760
     27 H2          0.0756    3.8627   -1.0330 H         1 <0>         0.0746
     28 H3         -0.1236    2.0860   -0.8590 H         1 <0>         0.0746
     29 H4          1.2223    3.1632    2.3048 H         1 <0>         0.1959
     30 H5         -4.5193    3.6925    1.3987 H         1 <0>         0.4592
     31 H6         -6.1430    4.9526    3.1699 H         1 <0>         0.1400
     32 H7         -6.3349    3.1754    3.3474 H         1 <0>         0.1400
     33 H8         -8.8067    4.8965    8.8253 H         1 <0>         0.4361
     34 H9         -7.0420    4.6383    8.1550 H         1 <0>         0.4491
     35 H10       -10.8223    5.0617    8.2939 H         1 <0>         0.4066
     36 H11       -13.4007    4.9422    9.5911 H         1 <0>         0.0916
     37 H12       -11.9427    5.8644    9.0907 H         1 <0>         0.0624
     38 H13       -13.6658    7.3035   10.2798 H         1 <0>         0.0718
     39 H14       -13.3170    7.8585    8.6074 H         1 <0>         0.0656
     40 H15       -15.6620    6.0468    9.4083 H         1 <0>         0.0682
     41 H16       -15.7798    7.8153    9.1165 H         1 <0>         0.0693
     42 H17       -16.4471    6.5899    7.0871 H         1 <0>         0.0766
     43 H18       -14.9010    7.4554    6.7917 H         1 <0>         0.0676
     44 H19       -14.7130    5.1646    5.9052 H         1 <0>         0.0880
     45 H20       -15.2354    4.4774    7.4804 H         1 <0>         0.0915
@<TRIPOS>BOND
     1    1    2 1
     2    1   26 1
     3    1   27 1
     4    1   28 1
     5    2    6 1
     6    2    3 2
     7    3    4 1
     8    3   29 1
     9    4    5 1
    10    5    6 2
    11    5    7 1
    12    7    8 am
    13    7   30 1
    14    8    9 2
    15    8   10 1
    16   10   11 1
    17   10   31 1
    18   10   32 1
    19   11   12 1
    20   12   16 1
    21   12   13 2
    22   13   14 1
    23   14   15 2
    24   15   16 1
    25   15   18 1
    26   16   17 1
    27   17   33 1
    28   17   34 1
    29   18   19 1
    30   18   35 1
    31   19   20 2
    32   20   25 1
    33   20   21 1
    34   21   22 1
    35   21   36 1
    36   21   37 1
    37   22   23 1
    38   22   38 1
    39   22   39 1
    40   23   24 1
    41   23   40 1
    42   23   41 1
    43   24   25 1
    44   24   42 1
    45   24   43 1
    46   25   44 1
    47   25   45 1
@<TRIPOS>MOLECULE
ZINC15936436
   41    43     0     0     0
SMALL
USER_CHARGES

@<TRIPOS>ATOM
      1 C1         -0.8970    1.4095    0.8820 C.3       1 <0>         0.0267
      2 O1         -0.8918   -0.0195    0.8967 O.3       1 <0>        -0.3121
      3 C2          0.1641   -0.6267    1.5011 C.ar      1 <0>         0.1203
      4 C3          1.1699    0.1389    2.0723 C.ar      1 <0>        -0.1863
      5 C4          2.2448   -0.4754    2.6875 C.ar      1 <0>        -0.1436
      6 C5          2.3201   -1.8576    2.7351 C.ar      1 <0>         0.0612
      7 C6          1.3117   -2.6290    2.1629 C.ar      1 <0>         0.1761
      8 C7          0.2317   -2.0105    1.5509 C.ar      1 <0>        -0.1285
      9 N1          1.3858   -4.0278    2.2093 N.am      1 <0>        -0.6712
     10 C8          0.7411   -4.7678    1.2856 C.2       1 <0>         0.7140
     11 O2          0.1808   -4.2237    0.3537 O.2       1 <0>        -0.5417
     12 N2          0.7173   -6.1109    1.3950 N.am      1 <0>        -0.5186
     13 N3          1.3628   -6.7379    2.4688 N.am      1 <0>        -0.5324
     14 C9          1.3390   -8.0810    2.5782 C.2       1 <0>         0.5998
     15 O3          0.7567   -8.7493    1.7439 O.2       1 <0>        -0.5054
     16 C10         2.0140   -8.7365    3.7010 C.2       1 <0>        -0.0038
     17 C11         2.0711  -10.0945    3.9268 C.2       1 <0>        -0.0547
     18 C12         2.8067  -10.2999    5.0994 C.2       1 <0>        -0.0423
     19 C13         3.1903   -9.0496    5.5744 C.2       1 <0>         0.0267
     20 N4          2.7075   -8.0995    4.7118 N.pl3     1 <0>        -0.5353
     21 H1          2.8304   -7.1412    4.7980 H         1 <0>         0.4189
     22 C14         3.9303   -9.2841    6.7568 C.2       1 <0>        -0.2082
     23 C15         3.9656  -10.6149    6.9457 C.2       1 <0>         0.0268
     24 O4          3.2937  -11.2254    5.9549 O.3       1 <0>        -0.1646
     25 O5          3.3789   -2.4613    3.3400 O.3       1 <0>        -0.3246
     26 C16         4.3763   -1.6081    3.9051 C.3       1 <0>         0.0293
     27 H2         -0.0121    1.7706    0.3578 H         1 <0>         0.0560
     28 H3         -1.7920    1.7643    0.3710 H         1 <0>         0.1020
     29 H4         -0.8908    1.7834    1.9058 H         1 <0>         0.0557
     30 H5          1.1134    1.2168    2.0361 H         1 <0>         0.1341
     31 H6          3.0267    0.1231    3.1312 H         1 <0>         0.1373
     32 H7         -0.5538   -2.6063    1.1100 H         1 <0>         0.1641
     33 H8          1.9012   -4.4633    2.9062 H         1 <0>         0.4055
     34 H9          0.2533   -6.6435    0.7302 H         1 <0>         0.4507
     35 H10         1.8268   -6.2053    3.1336 H         1 <0>         0.4149
     36 H11         1.6280  -10.8622    3.3099 H         1 <0>         0.1660
     37 H12         4.3826   -8.5346    7.3893 H         1 <0>         0.1570
     38 H13         4.4582  -11.1156    7.7661 H         1 <0>         0.2161
     39 H14         5.1618   -2.2156    4.3545 H         1 <0>         0.1008
     40 H15         4.8042   -0.9816    3.1225 H         1 <0>         0.0568
     41 H16         3.9235   -0.9764    4.6693 H         1 <0>         0.0565
@<TRIPOS>BOND
     1    1    2 1
     2    1   27 1
     3    1   28 1
     4    1   29 1
     5    2    3 1
     6    3    8 ar
     7    3    4 ar
     8    4    5 ar
     9    4   30 1
    10    5    6 ar
    11    5   31 1
    12    6    7 ar
    13    6   25 1
    14    7    8 ar
    15    7    9 1
    16    8   32 1
    17    9   10 am
    18    9   33 1
    19   10   11 2
    20   10   12 am
    21   12   13 1
    22   12   34 1
    23   13   14 am
    24   13   35 1
    25   14   15 2
    26   14   16 1
    27   16   20 1
    28   16   17 2
    29   17   18 1
    30   17   36 1
    31   18   24 1
    32   18   19 2
    33   19   20 1
    34   19   22 1
    35   20   21 1
    36   22   23 2
    37   22   37 1
    38   23   24 1
    39   23   38 1
    40   25   26 1
    41   26   39 1
    42   26   40 1
    43   26   41 1
@<TRIPOS>MOLECULE
ZINC45011919
   31    32     0     0     0
SMALL
USER_CHARGES

@<TRIPOS>ATOM
      1 C1          0.6316    1.7708   -0.5189 C.3       1 <0>        -0.0741
      2 C2          0.4874    0.2749   -0.4077 C.2       1 <0>         0.2498
      3 N1          0.4592   -0.5822   -1.4344 N.2       1 <0>        -0.5239
      4 C3          0.3240   -1.8027   -0.9951 C.2       1 <0>         0.2792
      5 O1          0.2610   -1.7626    0.3418 O.3       1 <0>        -0.0922
      6 N2          0.3755   -0.3943    0.7036 N.2       1 <0>        -0.3278
      7 C4          0.2514   -3.0445   -1.8457 C.3       1 <0>         0.2069
      8 N3          1.6014   -3.5743   -2.0527 N.pl3     1 <0>        -1.1216
      9 S1          1.8079   -5.1179   -2.6160 S.o2      1 <0>         2.7013
     10 O2          3.2088   -5.3210   -2.7401 O.2       1 <0>        -0.9375
     11 O3          0.9845   -5.9555   -1.8162 O.2       1 <0>        -0.9357
     12 C5          1.1450   -5.1700   -4.2477 C.ar      1 <0>        -0.7977
     13 C6          0.0510   -5.9666   -4.5348 C.ar      1 <0>         0.0991
     14 C7         -0.4384   -5.9770   -5.8348 C.ar      1 <0>        -0.2290
     15 C8          0.1769   -5.1976   -6.7952 C.ar      1 <0>         0.2461
     16 N4          1.2194   -4.4479   -6.4919 N.ar      1 <0>        -0.5225
     17 C9          1.7110   -4.4064   -5.2631 C.ar      1 <0>         0.5081
     18 N5          2.8071   -3.5967   -4.9867 N.pl3     1 <0>        -0.5522
     19 N6          3.4468   -2.9432   -6.0015 N.3       1 <0>        -0.5913
     20 Br1        -1.9309   -7.0472   -6.2852 Br        1 <0>        -0.0216
     21 H1          1.6886    2.0364   -0.4996 H         1 <0>         0.0990
     22 H2          0.1888    2.1100   -1.4554 H         1 <0>         0.0995
     23 H3          0.1218    2.2482    0.3180 H         1 <0>         0.0945
     24 H4         -0.3599   -3.7940   -1.3430 H         1 <0>         0.1279
     25 H5         -0.1944   -2.7991   -2.8096 H         1 <0>         0.1192
     26 H6          2.3744   -3.0210   -1.8599 H         1 <0>         0.4240
     27 H7         -0.4119   -6.5671   -3.7657 H         1 <0>         0.1669
     28 H8         -0.2000   -5.2024   -7.8073 H         1 <0>         0.1774
     29 H9          3.1175   -3.4958   -4.0732 H         1 <0>         0.4086
     30 H10         2.8033   -2.3664   -6.5223 H         1 <0>         0.3546
     31 H11         4.2188   -2.3970   -5.6498 H         1 <0>         0.3650
@<TRIPOS>BOND
     1    1    2 1
     2    1   21 1
     3    1   22 1
     4    1   23 1
     5    2    6 2
     6    2    3 1
     7    3    4 2
     8    4    5 1
     9    4    7 1
    10    5    6 1
    11    7    8 1
    12    7   24 1
    13    7   25 1
    14    8    9 1
    15    8   26 1
    16    9   10 2
    17    9   11 2
    18    9   12 1
    19   12   17 ar
    20   12   13 ar
    21   13   14 ar
    22   13   27 1
    23   14   15 ar
    24   14   20 1
    25   15   16 ar
    26   15   28 1
    27   16   17 ar
    28   17   18 1
    29   18   19 1
    30   18   29 1
    31   19   30 1
    32   19   31 1
@<TRIPOS>MOLECULE
ZINC58949257
   39    40     0     0     0
SMALL
USER_CHARGES

@<TRIPOS>ATOM
      1 C1         -0.1165    1.4992   -0.0434 C.3       1 <0>        -0.0999
      2 C2         -0.0449   -0.0060   -0.0233 C.2       1 <0>         0.1860
      3 C3         -1.1803   -0.7082    0.0609 C.2       1 <0>        -0.2763
      4 C4         -1.1668   -2.2120    0.0850 C.3       1 <0>         0.0887
      5 H1         -1.9517   -2.5915   -0.5692 H         1 <0>         0.1064
      6 C5          0.1677   -2.7210   -0.3886 C.2       1 <0>        -0.3794
      7 C6          1.2444   -1.8948   -0.4493 C.2       1 <0>         0.4363
      8 O1          1.1565   -0.6016   -0.0961 O.3       1 <0>        -0.2352
      9 N1          2.4447   -2.3897   -0.8839 N.pl3     1 <0>        -0.8234
     10 C7          0.3016   -4.0645   -0.7714 C.2       1 <0>         0.5375
     11 O2         -0.0967   -4.4293   -1.8632 O.2       1 <0>        -0.4918
     12 O3          0.8722   -4.9530    0.0708 O.3       1 <0>        -0.3517
     13 C8          0.9760   -6.3036   -0.3841 C.3       1 <0>         0.0276
     14 C9         -1.4125   -2.6921    1.4921 C.ar      1 <0>        -0.0712
     15 C10        -0.5480   -2.3283    2.5076 C.ar      1 <0>        -0.0198
     16 C11        -0.7730   -2.7690    3.7982 C.ar      1 <0>        -0.0386
     17 C12        -1.8628   -3.5739    4.0743 C.ar      1 <0>        -0.0430
     18 C13        -2.7279   -3.9379    3.0601 C.ar      1 <0>        -0.0998
     19 C14        -2.5064   -3.4923    1.7689 C.ar      1 <0>         0.0013
     20 Cl1        -3.5968   -3.9433    0.4956 Cl        1 <0>        -0.0296
     21 N2          0.1533   -2.3796    4.8849 N.pl3     1 <0>         0.0323
     22 O4          1.1064   -1.6761    4.6436 O.2       1 <0>        -0.1501
     23 O5         -0.0433   -2.7649    6.0138 O.3       1 <0>        -0.1481
     24 C15        -2.4576   -0.0011    0.1314 C.2       1 <0>         0.5768
     25 O6         -2.4814    1.2158    0.1131 O.2       1 <0>        -0.5356
     26 N3         -3.6090   -0.6964    0.2165 N.am      1 <0>        -0.8511
     27 H2          0.8903    1.9099   -0.1195 H         1 <0>         0.0763
     28 H3         -0.7069    1.8234   -0.9004 H         1 <0>         0.1118
     29 H4         -0.5847    1.8529    0.8752 H         1 <0>         0.1102
     30 H5          2.4997   -3.2940   -1.2303 H         1 <0>         0.4253
     31 H6          3.2402   -1.8359   -0.8453 H         1 <0>         0.4161
     32 H7          1.5757   -6.3356   -1.2938 H         1 <0>         0.0615
     33 H8          1.4516   -6.9109    0.3861 H         1 <0>         0.1023
     34 H9         -0.0200   -6.6947   -0.5916 H         1 <0>         0.0619
     35 H10         0.3036   -1.6999    2.2924 H         1 <0>         0.1552
     36 H11        -2.0376   -3.9186    5.0828 H         1 <0>         0.1666
     37 H12        -3.5790   -4.5669    3.2759 H         1 <0>         0.1631
     38 H13        -3.5900   -1.6661    0.2311 H         1 <0>         0.3937
     39 H14        -4.4566   -0.2271    0.2633 H         1 <0>         0.4078
@<TRIPOS>BOND
     1    1    2 1
     2    1   27 1
     3    1   28 1
     4    1   29 1
     5    2    8 1
     6    2    3 2
     7    3    4 1
     8    3   24 1
     9    4    5 1
    10    4    6 1
    11    4   14 1
    12    6    7 2
    13    6   10 1
    14    7    8 1
    15    7    9 1
    16    9   30 1
    17    9   31 1
    18   10   11 2
    19   10   12 1
    20   12   13 1
    21   13   32 1
    22   13   33 1
    23   13   34 1
    24   14   19 ar
    25   14   15 ar
    26   15   16 ar
    27   15   35 1
    28   16   17 ar
    29   16   21 1
    30   17   18 ar
    31   17   36 1
    32   18   19 ar
    33   18   37 1
    34   19   20 1
    35   21   22 2
    36   21   23 1
    37   24   25 2
    38   24   26 am
    39   26   38 1
    40   26   39 1
@<TRIPOS>MOLECULE
ZINC66928403
   45    47     0     0     0
SMALL
USER_CHARGES

@<TRIPOS>ATOM
      1 C1         -0.0184    1.5028    0.0103 C.3       1 <0>        -0.1153
      2 C2          0.0021   -0.0041    0.0020 C.2       1 <0>         0.2579
      3 C3         -1.2021   -0.7171    0.0039 C.2       1 <0>        -0.1913
      4 C4         -1.1688   -2.0754   -0.0036 C.2       1 <0>         0.2323
      5 N1          0.0346   -2.7056   -0.0128 N.pl3     1 <0>        -0.3183
      6 C5          1.1924   -1.9800   -0.0144 C.2       1 <0>         0.4797
      7 N2          1.1506   -0.6427   -0.0124 N.2       1 <0>        -0.4668
      8 N3          2.2018   -2.8444   -0.0232 N.2       1 <0>        -0.5585
      9 C6          1.7279   -4.0879   -0.0273 C.2       1 <0>         0.5206
     10 N4          0.4108   -4.0552   -0.0212 N.2       1 <0>        -0.3844
     11 N5          2.5036   -5.2441   -0.0365 N.pl3     1 <0>        -0.8108
     12 C7         -2.4485   -2.8713   -0.0013 C.3       1 <0>        -0.1258
     13 C8         -2.5204    0.0130    0.0147 C.3       1 <0>        -0.0744
     14 C9         -2.8927    0.3566    1.4340 C.2       1 <0>         0.5124
     15 O1         -2.1598    0.0397    2.3469 O.2       1 <0>        -0.5254
     16 N6         -4.0402    1.0160    1.6889 N.am      1 <0>        -0.5217
     17 N7         -4.3864    1.3354    3.0083 N.am      1 <0>        -0.5250
     18 C10        -5.5338    1.9947    3.2632 C.2       1 <0>         0.5183
     19 O2         -6.2668    2.3116    2.3503 O.2       1 <0>        -0.5257
     20 C11        -5.9062    2.3383    4.6825 C.3       1 <0>        -0.0908
     21 C12        -7.2245    3.0684    4.6933 C.ar      1 <0>        -0.1079
     22 C13        -7.2493    4.4504    4.6956 C.ar      1 <0>        -0.0761
     23 C14        -8.4583    5.1204    4.7054 C.ar      1 <0>        -0.1287
     24 C15        -9.6440    4.4092    4.7130 C.ar      1 <0>        -0.0856
     25 C16        -9.6216    3.0276    4.7103 C.ar      1 <0>        -0.1533
     26 C17        -8.4110    2.3553    4.6951 C.ar      1 <0>         0.1152
     27 F1         -8.3880    1.0045    4.6876 F         1 <0>        -0.1374
     28 H1          1.0042    1.8801    0.0026 H         1 <0>         0.0930
     29 H2         -0.5455    1.8639   -0.8728 H         1 <0>         0.0954
     30 H3         -0.5286    1.8543    0.9071 H         1 <0>         0.0921
     31 H4          3.4714   -5.1788   -0.0402 H         1 <0>         0.4201
     32 H5          2.0762   -6.1148   -0.0392 H         1 <0>         0.4186
     33 H6         -2.7623   -3.0577   -1.0284 H         1 <0>         0.1010
     34 H7         -2.2843   -3.8217    0.5065 H         1 <0>         0.0944
     35 H8         -3.2244   -2.3103    0.5196 H         1 <0>         0.0926
     36 H9         -2.4332    0.9289   -0.5699 H         1 <0>         0.1257
     37 H10        -3.2916   -0.6232   -0.4194 H         1 <0>         0.1202
     38 H11        -4.6264    1.2694    0.9588 H         1 <0>         0.4340
     39 H12        -3.8002    1.0819    3.7384 H         1 <0>         0.4335
     40 H13        -5.9933    1.4225    5.2671 H         1 <0>         0.1134
     41 H14        -5.1349    2.9745    5.1166 H         1 <0>         0.1173
     42 H15        -6.3238    5.0070    4.6900 H         1 <0>         0.1327
     43 H16        -8.4767    6.2002    4.7076 H         1 <0>         0.1320
     44 H17       -10.5880    4.9338    4.7214 H         1 <0>         0.1343
     45 H18       -10.5479    2.4723    4.7165 H         1 <0>         0.1368
@<TRIPOS>BOND
     1    1    2 1
     2    1   28 1
     3    1   29 1
     4    1   30 1
     5    2    7 2
     6    2    3 1
     7    3    4 2
     8    3   13 1
     9    4    5 1
    10    4   12 1
    11    5   10 1
    12    5    6 1
    13    6    7 1
    14    6    8 2
    15    8    9 1
    16    9   10 2
    17    9   11 1
    18   11   31 1
    19   11   32 1
    20   12   33 1
    21   12   34 1
    22   12   35 1
    23   13   14 1
    24   13   36 1
    25   13   37 1
    26   14   15 2
    27   14   16 am
    28   16   17 1
    29   16   38 1
    30   17   18 am
    31   17   39 1
    32   18   19 2
    33   18   20 1
    34   20   21 1
    35   20   40 1
    36   20   41 1
    37   21   26 ar
    38   21   22 ar
    39   22   23 ar
    40   22   42 1
    41   23   24 ar
    42   23   43 1
    43   24   25 ar
    44   24   44 1
    45   25   26 ar
    46   25   45 1
    47   26   27 1
@<TRIPOS>MOLECULE
ZINC08844382
   48    51     0     0     0
SMALL
USER_CHARGES
3-(4-methylthiazol-2-yl)-7-[3,4,5-trihydroxy-6-(hydroxymethyl)tetrahydropyran-2-yl]oxy-chromen-4-one
@<TRIPOS>ATOM
      1 C1          4.2802  -10.0593    8.1459 C.3       1 <0>        -0.0830
      2 C2          4.1410   -8.5637    8.0232 C.2       1 <0>         0.0560
      3 C3          4.5239   -7.7589    9.0479 C.2       1 <0>        -0.2254
      4 S1          4.1510   -6.1499    8.3619 S.3       1 <0>         0.0742
      5 C4          3.5174   -6.7239    6.7916 C.2       1 <0>         0.1651
      6 N1          3.6497   -8.0367    6.9246 N.2       1 <0>        -0.5086
      7 C5          2.9936   -5.9452    5.6507 C.2       1 <0>        -0.2219
      8 C6          2.5577   -6.5720    4.5241 C.2       1 <0>         0.1933
      9 O1          2.0781   -5.9052    3.4720 O.3       1 <0>        -0.2082
     10 C7          1.9814   -4.5617    3.4279 C.ar      1 <0>         0.1778
     11 C8          1.4670   -3.9276    2.3044 C.ar      1 <0>        -0.1702
     12 C9          1.3783   -2.5464    2.2733 C.ar      1 <0>         0.1951
     13 C10         1.7910   -1.7842    3.3644 C.ar      1 <0>        -0.2061
     14 C11         2.2942   -2.3921    4.4789 C.ar      1 <0>         0.0129
     15 C12         2.3948   -3.7835    4.5231 C.ar      1 <0>        -0.2441
     16 C13         2.9326   -4.4733    5.7096 C.2       1 <0>         0.4363
     17 O2          3.3081   -3.8570    6.6917 O.2       1 <0>        -0.4478
     18 O3          0.8795   -1.9292    1.1720 O.3       1 <0>        -0.2863
     19 C14         0.8084   -0.5023    1.2042 C.3       1 <0>         0.2262
     20 H1          0.3216   -0.1832    2.1258 H         1 <0>         0.0789
     21 C15         0.0021   -0.0041    0.0020 C.3       1 <0>         0.0623
     22 H2          0.4648   -0.3570   -0.9196 H         1 <0>         0.0947
     23 C16        -0.0187    1.5275    0.0104 C.3       1 <0>         0.0865
     24 H3         -0.5266    1.8804    0.9080 H         1 <0>         0.0777
     25 C17         1.4223    2.0468   -0.0005 C.3       1 <0>         0.0862
     26 H4          1.4178    3.1351    0.0612 H         1 <0>         0.0891
     27 C18         2.1738    1.4693    1.2018 C.3       1 <0>         0.1091
     28 H5          1.7049    1.8143    2.1234 H         1 <0>         0.0883
     29 O4          2.1285    0.0420    1.1493 O.3       1 <0>        -0.3670
     30 C19         3.6306    1.9353    1.1651 C.3       1 <0>         0.0887
     31 O5          4.3023    1.4923    2.3460 O.3       1 <0>        -0.5675
     32 O6          2.0679    1.6384   -1.2082 O.3       1 <0>        -0.5453
     33 O7         -0.7069    2.0027   -1.1483 O.3       1 <0>        -0.5527
     34 O8         -1.3354   -0.5003    0.0853 O.3       1 <0>        -0.5569
     35 H6          5.2599  -10.3644    7.7784 H         1 <0>         0.0739
     36 H7          4.1780  -10.3491    9.1917 H         1 <0>         0.0739
     37 H8          3.5032  -10.5460    7.5564 H         1 <0>         0.0738
     38 H9          4.9421   -8.0184   10.0093 H         1 <0>         0.1974
     39 H10         2.6018   -7.6502    4.4795 H         1 <0>         0.2174
     40 H11         1.1408   -4.5103    1.4556 H         1 <0>         0.1564
     41 H12         1.7127   -0.7076    3.3284 H         1 <0>         0.1433
     42 H13         2.6129   -1.7985    5.3230 H         1 <0>         0.1497
     43 H14         4.1239    1.5169    0.2878 H         1 <0>         0.0703
     44 H15         3.6628    3.0237    1.1155 H         1 <0>         0.0676
     45 H16         5.2326    1.7526    2.3904 H         1 <0>         0.3865
     46 H17         1.6413    1.9651   -2.0122 H         1 <0>         0.3905
     47 H18        -1.6251    1.7058   -1.2097 H         1 <0>         0.3968
     48 H19        -1.3977   -1.4652    0.0848 H         1 <0>         0.3949
@<TRIPOS>BOND
     1    1    2 1
     2    1   35 1
     3    1   36 1
     4    1   37 1
     5    2    6 1
     6    2    3 2
     7    3    4 1
     8    3   38 1
     9    4    5 1
    10    5    6 2
    11    5    7 1
    12    7   16 1
    13    7    8 2
    14    8    9 1
    15    8   39 1
    16    9   10 1
    17   10   15 ar
    18   10   11 ar
    19   11   12 ar
    20   11   40 1
    21   12   13 ar
    22   12   18 1
    23   13   14 ar
    24   13   41 1
    25   14   15 ar
    26   14   42 1
    27   15   16 1
    28   16   17 2
    29   18   19 1
    30   19   20 1
    31   19   29 1
    32   19   21 1
    33   21   22 1
    34   21   23 1
    35   21   34 1
    36   23   24 1
    37   23   25 1
    38   23   33 1
    39   25   26 1
    40   25   27 1
    41   25   32 1
    42   27   28 1
    43   27   29 1
    44   27   30 1
    45   30   31 1
    46   30   43 1
    47   30   44 1
    48   31   45 1
    49   32   46 1
    50   33   47 1
    51   34   48 1
@<TRIPOS>MOLECULE
ZINC22206714
   37    37     0     0     0
SMALL
USER_CHARGES
(2-oxo-2-ureido-ethyl) 3-[(2,6-dichlorophenyl)sulfonylamino]propanoate
@<TRIPOS>ATOM
      1 C1         -1.2477    3.7894    0.0334 C.ar      1 <0>        -0.0384
      2 C2         -0.0607    4.4974    0.0258 C.ar      1 <0>        -0.1280
      3 C3          1.1473    3.8229    0.0112 C.ar      1 <0>         0.0581
      4 C4          1.1669    2.4398    0.0040 C.ar      1 <0>        -0.6835
      5 C5         -0.0215    1.7317    0.0116 C.ar      1 <0>         0.0602
      6 C6         -1.2289    2.4073    0.0209 C.ar      1 <0>        -0.1289
      7 Cl1         0.0021   -0.0041    0.0020 Cl        1 <0>        -0.0123
      8 S1          2.7049    1.5802   -0.0153 S.o2      1 <0>         2.6841
      9 O1          3.6722    2.4662    0.5311 O.2       1 <0>        -0.9301
     10 O2          2.4570    0.2920    0.5311 O.2       1 <0>        -0.9328
     11 N1          3.1171    1.3498   -1.6025 N.pl3     1 <0>        -1.1168
     12 C7          3.4119    2.5023   -2.4575 C.3       1 <0>         0.1246
     13 C8          4.1133    2.0263   -3.7312 C.3       1 <0>        -0.1210
     14 C9          4.4165    3.2119   -4.6107 C.2       1 <0>         0.4708
     15 O3          4.1037    4.3235   -4.2552 O.2       1 <0>        -0.5009
     16 O4          5.0341    3.0330   -5.7889 O.3       1 <0>        -0.3311
     17 C10         5.2943    4.2200   -6.5838 C.3       1 <0>         0.0492
     18 C11         5.9882    3.8262   -7.8622 C.2       1 <0>         0.5191
     19 O5          6.2387    2.6606   -8.0818 O.2       1 <0>        -0.4451
     20 N2          6.3304    4.7700   -8.7615 N.am      1 <0>        -0.7028
     21 C12         6.9510    4.4179   -9.9049 C.2       1 <0>         0.7003
     22 O6          7.2021    3.2493  -10.1250 O.2       1 <0>        -0.5410
     23 N3          7.2931    5.3617  -10.8041 N.am      1 <0>        -0.8809
     24 Cl2         2.6382    4.7123    0.0011 Cl        1 <0>        -0.0091
     25 H1         -2.1904    4.3162    0.0445 H         1 <0>         0.1518
     26 H2         -0.0761    5.5772    0.0310 H         1 <0>         0.1506
     27 H3         -2.1568    1.8547    0.0227 H         1 <0>         0.1504
     28 H4          3.0075    0.3493   -2.0465 H         1 <0>         0.4465
     29 H5          2.4736    3.0108   -2.7238 H         1 <0>         0.0711
     30 H6          4.0673    3.2014   -1.9174 H         1 <0>         0.0979
     31 H7          5.0517    1.5178   -3.4649 H         1 <0>         0.1253
     32 H8          3.4579    1.3272   -4.2713 H         1 <0>         0.1207
     33 H9          4.3427    4.7180   -6.8215 H         1 <0>         0.1112
     34 H10         5.9365    4.9086   -6.0151 H         1 <0>         0.1118
     35 H11         6.1032    5.8277   -8.5623 H         1 <0>         0.4354
     36 H12         7.7996    5.0744  -11.7373 H         1 <0>         0.4457
     37 H13         7.0658    6.4193  -10.6048 H         1 <0>         0.4178
@<TRIPOS>BOND
     1    1    6 ar
     2    1    2 ar
     3    1   25 1
     4    2    3 ar
     5    2   26 1
     6    3    4 ar
     7    3   24 1
     8    4    5 ar
     9    4    8 1
    10    5    6 ar
    11    5    7 1
    12    6   27 1
    13    8    9 2
    14    8   10 2
    15    8   11 1
    16   11   12 1
    17   11   28 1
    18   12   13 1
    19   12   29 1
    20   12   30 1
    21   13   14 1
    22   13   31 1
    23   13   32 1
    24   14   15 2
    25   14   16 1
    26   16   17 1
    27   17   18 1
    28   17   33 1
    29   17   34 1
    30   18   19 2
    31   18   20 am
    32   20   21 am
    33   20   35 1
    34   21   22 2
    35   21   23 am
    36   23   36 1
    37   23   37 1
@<TRIPOS>MOLECULE
ZINC03380680
   46    46     0     0     0
SMALL
USER_CHARGES

@<TRIPOS>ATOM
      1 C1         -0.0810    1.9740   -0.4691 C.3       1 <0>        -0.1695
      2 C2          0.0811    0.4685   -0.2498 C.3       1 <0>         0.0681
      3 H1         -0.9022    0.0053   -0.1682 H         1 <0>         0.1160
      4 C3          0.8572    0.2265    1.0191 C.2       1 <0>         0.5198
      5 O1          1.9514   -0.2933    0.9707 O.2       1 <0>        -0.4363
      6 N1          0.3348    0.5878    2.2079 N.am      1 <0>        -0.6873
      7 C4          1.0289    0.3713    3.3427 C.2       1 <0>         0.6981
      8 O2          2.1258   -0.1498    3.2941 O.2       1 <0>        -0.5287
      9 N2          0.5066    0.7326    4.5314 N.am      1 <0>        -0.8548
     10 O3          0.7856   -0.1007   -1.3550 O.3       1 <0>        -0.3135
     11 C5          0.0482   -0.5371   -2.3882 C.2       1 <0>         0.4503
     12 O4         -1.1556   -0.4390   -2.3554 O.2       1 <0>        -0.4852
     13 C6          0.7218   -1.1494   -3.5893 C.3       1 <0>         0.1705
     14 H2          1.2876   -2.0281   -3.2799 H         1 <0>         0.1328
     15 C7          1.6708   -0.1272   -4.2181 C.3       1 <0>        -0.0936
     16 C8          2.8133    0.1736   -3.2459 C.3       1 <0>        -0.1607
     17 C9          2.2436   -0.6953   -5.5181 C.3       1 <0>        -0.1512
     18 N3         -0.2926   -1.5422   -4.5706 N.pl3     1 <0>        -1.0931
     19 S1         -0.5351   -3.1438   -4.9148 S.o2      1 <0>         2.6907
     20 O5         -1.5632   -3.1975   -5.8943 O.2       1 <0>        -0.9470
     21 O6          0.7497   -3.7127   -5.1270 O.2       1 <0>        -0.9440
     22 C10        -1.1852   -3.8966   -3.4604 C.ar      1 <0>        -0.6807
     23 C11        -0.3283   -4.4345   -2.5184 C.ar      1 <0>        -0.0271
     24 C12        -0.8384   -5.0251   -1.3774 C.ar      1 <0>        -0.1389
     25 C13        -2.2053   -5.0774   -1.1782 C.ar      1 <0>        -0.0611
     26 C14        -3.0622   -4.5388   -2.1197 C.ar      1 <0>        -0.1386
     27 C15        -2.5519   -3.9443   -3.2587 C.ar      1 <0>        -0.0113
     28 H3          0.9023    2.4373   -0.5506 H         1 <0>         0.0791
     29 H4         -0.6423    2.1491   -1.3869 H         1 <0>         0.0818
     30 H5         -0.6184    2.4083    0.3739 H         1 <0>         0.0822
     31 H6         -0.5406    1.0036    2.2467 H         1 <0>         0.4116
     32 H7         -0.3689    1.1484    4.5702 H         1 <0>         0.4009
     33 H8          1.0061    0.5767    5.3482 H         1 <0>         0.4229
     34 H9          1.1249    0.7916   -4.4325 H         1 <0>         0.0836
     35 H10         3.3592   -0.7452   -3.0314 H         1 <0>         0.0649
     36 H11         3.4894    0.9018   -3.6939 H         1 <0>         0.0667
     37 H12         2.4052    0.5783   -2.3197 H         1 <0>         0.0779
     38 H13         1.4415   -0.8166   -6.2461 H         1 <0>         0.0575
     39 H14         2.9936   -0.0108   -5.9144 H         1 <0>         0.0672
     40 H15         2.7038   -1.6633   -5.3199 H         1 <0>         0.0704
     41 H16        -0.8221   -0.8643   -5.0187 H         1 <0>         0.4275
     42 H17         0.7396   -4.3936   -2.6741 H         1 <0>         0.1401
     43 H18        -0.1690   -5.4460   -0.6418 H         1 <0>         0.1347
     44 H19        -2.6038   -5.5395   -0.2871 H         1 <0>         0.1322
     45 H20        -4.1301   -4.5799   -1.9642 H         1 <0>         0.1345
     46 H21        -3.2212   -3.5201   -3.9926 H         1 <0>         0.1408
@<TRIPOS>BOND
     1    1    2 1
     2    1   28 1
     3    1   29 1
     4    1   30 1
     5    2    3 1
     6    2    4 1
     7    2   10 1
     8    4    5 2
     9    4    6 am
    10    6    7 am
    11    6   31 1
    12    7    8 2
    13    7    9 am
    14    9   32 1
    15    9   33 1
    16   10   11 1
    17   11   12 2
    18   11   13 1
    19   13   14 1
    20   13   15 1
    21   13   18 1
    22   15   16 1
    23   15   17 1
    24   15   34 1
    25   16   35 1
    26   16   36 1
    27   16   37 1
    28   17   38 1
    29   17   39 1
    30   17   40 1
    31   18   19 1
    32   18   41 1
    33   19   20 2
    34   19   21 2
    35   19   22 1
    36   22   27 ar
    37   22   23 ar
    38   23   24 ar
    39   23   42 1
    40   24   25 ar
    41   24   43 1
    42   25   26 ar
    43   25   44 1
    44   26   27 ar
    45   26   45 1
    46   27   46 1
@<TRIPOS>MOLECULE
ZINC52563094
   48    49     0     0     0
SMALL
USER_CHARGES

@<TRIPOS>ATOM
      1 C1         -0.0184    1.5028    0.0103 C.3       1 <0>        -0.0744
      2 C2          0.0021   -0.0041    0.0020 C.2       1 <0>         0.0833
      3 C3          0.0080   -0.8179   -1.1355 C.2       1 <0>        -0.2657
      4 C4          0.0279   -2.1072   -0.7249 C.2       1 <0>         0.0952
      5 N1          0.0343   -2.1090    0.6245 N.pl3     1 <0>        -0.3647
      6 N2          0.0231   -0.7768    1.0576 N.2       1 <0>        -0.2877
      7 C5          0.0548   -3.2948    1.4847 C.3       1 <0>         0.1284
      8 C6          1.4825   -3.6816    1.7729 C.2       1 <0>         0.4970
      9 O1          2.3932   -3.0309    1.3058 O.2       1 <0>        -0.5046
     10 N3          1.7473   -4.7507    2.5497 N.am      1 <0>        -0.5294
     11 N4          3.0746   -5.1103    2.8177 N.am      1 <0>        -0.5280
     12 C7          3.3394   -6.1794    3.5945 C.2       1 <0>         0.7177
     13 O2          4.4913   -6.4915    3.8270 O.2       1 <0>        -0.5631
     14 N5          2.3274   -6.9024    4.1136 N.am      1 <0>        -0.7405
     15 C8          2.6153   -8.0645    4.9580 C.3       1 <0>         0.1250
     16 C9          1.3011   -8.7021    5.4134 C.3       1 <0>         0.1088
     17 N6          1.5890   -9.8641    6.2578 N.am      1 <0>        -0.7237
     18 C10         0.5769  -10.5872    6.7768 C.2       1 <0>         0.5629
     19 O3         -0.5748  -10.2751    6.5443 O.2       1 <0>        -0.5188
     20 C11         0.8671  -11.7587    7.6281 C.ar      1 <0>        -0.1789
     21 C12         2.1889  -12.1169    7.9022 C.ar      1 <0>        -0.0576
     22 C13         2.4530  -13.2112    8.6979 C.ar      1 <0>        -0.1381
     23 C14         1.4122  -13.9564    9.2257 C.ar      1 <0>        -0.0596
     24 C15         0.1009  -13.6103    8.9599 C.ar      1 <0>        -0.1640
     25 C16        -0.1801  -12.5113    8.1684 C.ar      1 <0>         0.1617
     26 F1         -1.4621  -12.1698    7.9132 F         1 <0>        -0.1137
     27 C17         0.0401   -3.3230   -1.6152 C.3       1 <0>        -0.0953
     28 H1          1.0042    1.8801    0.0026 H         1 <0>         0.0783
     29 H2         -0.5455    1.8639   -0.8728 H         1 <0>         0.0790
     30 H3         -0.5286    1.8543    0.9071 H         1 <0>         0.0730
     31 H4         -0.0021   -0.4776   -2.1604 H         1 <0>         0.1494
     32 H5         -0.4577   -3.0734    2.4209 H         1 <0>         0.1334
     33 H6         -0.4500   -4.1185    0.9800 H         1 <0>         0.1297
     34 H7          1.0190   -5.2711    2.9233 H         1 <0>         0.4207
     35 H8          3.8030   -4.5899    2.4441 H         1 <0>         0.4462
     36 H9          1.4084   -6.6534    3.9280 H         1 <0>         0.3943
     37 H10         3.1943   -8.7922    4.3894 H         1 <0>         0.0806
     38 H11         3.1866   -7.7471    5.8303 H         1 <0>         0.0806
     39 H12         0.7221   -7.9743    5.9819 H         1 <0>         0.0792
     40 H13         0.7298   -9.0194    4.5410 H         1 <0>         0.0791
     41 H14         2.5079  -10.1131    6.4433 H         1 <0>         0.4039
     42 H15         3.0027  -11.5378    7.4912 H         1 <0>         0.1362
     43 H16         3.4750  -13.4884    8.9100 H         1 <0>         0.1389
     44 H17         1.6263  -14.8128    9.8480 H         1 <0>         0.1406
     45 H18        -0.7059  -14.1966    9.3744 H         1 <0>         0.1451
     46 H19         1.0706   -3.6023   -1.8347 H         1 <0>         0.0822
     47 H20        -0.4602   -4.1488   -1.1093 H         1 <0>         0.0683
     48 H21        -0.4812   -3.0975   -2.5455 H         1 <0>         0.0894
@<TRIPOS>BOND
     1    1    2 1
     2    1   28 1
     3    1   29 1
     4    1   30 1
     5    2    6 2
     6    2    3 1
     7    3    4 2
     8    3   31 1
     9    4    5 1
    10    4   27 1
    11    5    6 1
    12    5    7 1
    13    7    8 1
    14    7   32 1
    15    7   33 1
    16    8    9 2
    17    8   10 am
    18   10   11 1
    19   10   34 1
    20   11   12 am
    21   11   35 1
    22   12   13 2
    23   12   14 am
    24   14   15 1
    25   14   36 1
    26   15   16 1
    27   15   37 1
    28   15   38 1
    29   16   17 1
    30   16   39 1
    31   16   40 1
    32   17   18 am
    33   17   41 1
    34   18   19 2
    35   18   20 1
    36   20   25 ar
    37   20   21 ar
    38   21   22 ar
    39   21   42 1
    40   22   23 ar
    41   22   43 1
    42   23   24 ar
    43   23   44 1
    44   24   25 ar
    45   24   45 1
    46   25   26 1
    47   27   46 1
    48   27   47 1
    49   27   48 1
@<TRIPOS>MOLECULE
ZINC65629808
   50    50     0     0     0
SMALL
USER_CHARGES

@<TRIPOS>ATOM
      1 C1          0.9364    1.5253   -0.5868 C.3       1 <0>        -0.1721
      2 C2          0.9714    0.0188   -0.6016 C.2       1 <0>         0.5102
      3 O1          1.9050   -0.5711   -0.0999 O.2       1 <0>        -0.5256
      4 N1         -0.0346   -0.6731   -1.1722 N.am      1 <0>        -0.6747
      5 C3          0.0432   -2.0676   -1.2722 C.ar      1 <0>         0.1333
      6 C4         -0.4857   -2.7148   -2.3816 C.ar      1 <0>        -0.1259
      7 C5         -0.4091   -4.0892   -2.4804 C.ar      1 <0>        -0.0979
      8 C6          0.1971   -4.8256   -1.4701 C.ar      1 <0>         0.1195
      9 C7          0.7261   -4.1780   -0.3605 C.ar      1 <0>        -0.1164
     10 C8          0.6543   -2.8030   -0.2648 C.ar      1 <0>        -0.1018
     11 N2          0.2744   -6.2182   -1.5698 N.am      1 <0>        -0.6397
     12 C9          0.4517   -6.7988   -2.7731 C.2       1 <0>         0.5092
     13 O2          0.4604   -6.1199   -3.7792 O.2       1 <0>        -0.4974
     14 C10         0.6375   -8.2775   -2.8685 C.2       1 <0>         0.5151
     15 O3          0.6288   -8.9563   -1.8625 O.2       1 <0>        -0.5102
     16 N3          0.8148   -8.8581   -4.0717 N.am      1 <0>        -0.6957
     17 C11         0.9970  -10.3087   -4.1653 C.3       1 <0>         0.1060
     18 C12         1.1760  -10.7067   -5.6318 C.3       1 <0>         0.1257
     19 N4          1.3582  -12.1573   -5.7254 N.am      1 <0>        -0.7099
     20 C13         1.5355  -12.7380   -6.9287 C.2       1 <0>         0.6533
     21 O4          1.5442  -12.0583   -7.9359 O.2       1 <0>        -0.5611
     22 O5          1.7030  -14.0711   -7.0147 O.3       1 <0>        -0.3569
     23 C14         1.8857  -14.6190   -8.3218 C.3       1 <0>         0.1346
     24 C15         3.1326  -14.0059   -8.9621 C.3       1 <0>        -0.1868
     25 C16         2.0583  -16.1358   -8.2194 C.3       1 <0>        -0.1412
     26 C17         0.6616  -14.3020   -9.1833 C.3       1 <0>        -0.1867
     27 H1          1.4243    1.9089   -1.4829 H         1 <0>         0.0989
     28 H2         -0.0992    1.8645   -0.5635 H         1 <0>         0.0835
     29 H3          1.4589    1.8923    0.2966 H         1 <0>         0.0983
     30 H4         -0.8126   -0.2050   -1.5135 H         1 <0>         0.4129
     31 H5         -0.9572   -2.1424   -3.1667 H         1 <0>         0.1320
     32 H6         -0.8207   -4.5924   -3.3429 H         1 <0>         0.1443
     33 H7          1.1974   -4.7501    0.4250 H         1 <0>         0.1333
     34 H8          1.0694   -2.2992    0.5956 H         1 <0>         0.1453
     35 H9          0.2005   -6.7663   -0.7729 H         1 <0>         0.4240
     36 H10         0.8217   -8.3156   -4.8758 H         1 <0>         0.4181
     37 H11         1.8813  -10.6011   -3.5990 H         1 <0>         0.0861
     38 H12         0.1209  -10.8121   -3.7566 H         1 <0>         0.0863
     39 H13         0.2918  -10.4143   -6.1981 H         1 <0>         0.0827
     40 H14         2.0521  -10.2033   -6.0406 H         1 <0>         0.0827
     41 H15         1.3513  -12.6999   -4.9213 H         1 <0>         0.4103
     42 H16         4.0046  -14.2317   -8.3483 H         1 <0>         0.0600
     43 H17         3.2720  -14.4238   -9.9591 H         1 <0>         0.0716
     44 H18         3.0096  -12.9253   -9.0350 H         1 <0>         0.0872
     45 H19         1.1699  -16.5726   -7.7632 H         1 <0>         0.0672
     46 H20         2.1976  -16.5537   -9.2164 H         1 <0>         0.0819
     47 H21         2.9303  -16.3616   -7.6056 H         1 <0>         0.0673
     48 H22         0.5387  -13.2214   -9.2562 H         1 <0>         0.0872
     49 H23         0.8010  -14.7199  -10.1803 H         1 <0>         0.0716
     50 H24        -0.2267  -14.7388   -8.7271 H         1 <0>         0.0599
@<TRIPOS>BOND
     1    1    2 1
     2    1   27 1
     3    1   28 1
     4    1   29 1
     5    2    3 2
     6    2    4 am
     7    4    5 1
     8    4   30 1
     9    5   10 ar
    10    5    6 ar
    11    6    7 ar
    12    6   31 1
    13    7    8 ar
    14    7   32 1
    15    8    9 ar
    16    8   11 1
    17    9   10 ar
    18    9   33 1
    19   10   34 1
    20   11   12 am
    21   11   35 1
    22   12   13 2
    23   12   14 1
    24   14   15 2
    25   14   16 am
    26   16   17 1
    27   16   36 1
    28   17   18 1
    29   17   37 1
    30   17   38 1
    31   18   19 1
    32   18   39 1
    33   18   40 1
    34   19   20 am
    35   19   41 1
    36   20   21 2
    37   20   22 1
    38   22   23 1
    39   23   24 1
    40   23   25 1
    41   23   26 1
    42   24   42 1
    43   24   43 1
    44   24   44 1
    45   25   45 1
    46   25   46 1
    47   25   47 1
    48   26   48 1
    49   26   49 1
    50   26   50 1
@<TRIPOS>MOLECULE
ZINC13424717
   49    52     0     0     0
SMALL
USER_CHARGES
(2S,3S,4R,5S,6S)-6-(5,6-dihydroxy-4-oxo-2-phenyl-chromen-7-yl)oxy-3,4,5-trihydroxy-tetrahydropyran-2-carboxylic acid
@<TRIPOS>ATOM
      1 C1         -5.8712   -2.4576    0.0475 C.ar      1 <0>        -0.0953
      2 C2         -4.6282   -3.0654    0.0319 C.ar      1 <0>        -0.1212
      3 C3         -3.4819   -2.2983    0.0247 C.ar      1 <0>        -0.0745
      4 C4         -3.5779   -0.9051    0.0336 C.ar      1 <0>        -0.0731
      5 C5         -4.8355   -0.2984    0.0557 C.ar      1 <0>        -0.0812
      6 C6         -5.9737   -1.0777    0.0560 C.ar      1 <0>        -0.1250
      7 C7         -2.3549   -0.0772    0.0259 C.2       1 <0>         0.2114
      8 C8         -2.4820    1.2758    0.0345 C.2       1 <0>        -0.3178
      9 C9         -1.3207    2.0863    0.0320 C.2       1 <0>         0.4302
     10 O1         -1.3975    3.3042    0.0395 O.2       1 <0>        -0.4649
     11 C10        -0.0170    1.4020    0.0098 C.ar      1 <0>        -0.2768
     12 C11         0.0021   -0.0041    0.0020 C.ar      1 <0>         0.1983
     13 O2         -1.1611   -0.6901    0.0103 O.3       1 <0>        -0.2121
     14 C12         1.2175   -0.6700   -0.0136 C.ar      1 <0>        -0.2046
     15 C13         2.4030    0.0480   -0.0210 C.ar      1 <0>         0.1938
     16 C14         2.3886    1.4415   -0.0130 C.ar      1 <0>         0.0222
     17 C15         1.1824    2.1236    0.0022 C.ar      1 <0>         0.2069
     18 O3          1.1642    3.4818    0.0091 O.3       1 <0>        -0.4659
     19 O4          3.5611    2.1335   -0.0195 O.3       1 <0>        -0.4696
     20 O5          3.5898   -0.6126   -0.0359 O.3       1 <0>        -0.2796
     21 C16         3.5373   -2.0406   -0.0430 C.3       1 <0>         0.2103
     22 H1          2.9266   -2.3778   -0.8806 H         1 <0>         0.0772
     23 C17         4.9541   -2.6029   -0.1853 C.3       1 <0>         0.0698
     24 H2          5.3770   -2.2877   -1.1392 H         1 <0>         0.0772
     25 C18         4.8958   -4.1326   -0.1317 C.3       1 <0>         0.1179
     26 H3          5.9067   -4.5378   -0.1762 H         1 <0>         0.0838
     27 C19         4.2290   -4.5615    1.1790 C.3       1 <0>         0.1104
     28 H4          4.8365   -4.2315    2.0217 H         1 <0>         0.0785
     29 C20         2.8402   -3.9236    1.2686 C.3       1 <0>         0.0281
     30 H5          2.2203   -4.2857    0.4484 H         1 <0>         0.0766
     31 O6          2.9637   -2.5026    1.1816 O.3       1 <0>        -0.3558
     32 C21         2.2013   -4.2931    2.5825 C.2       1 <0>         0.4726
     33 O7          1.9658   -3.4367    3.4017 O.co2     1 <0>        -0.6029
     34 O8          4.1036   -5.9847    1.2076 O.3       1 <0>        -0.5581
     35 O9          4.1340   -4.6210   -1.2377 O.3       1 <0>        -0.5384
     36 O10         5.7697   -2.1183    0.8834 O.3       1 <0>        -0.5401
     37 H6         -6.7655   -3.0630    0.0528 H         1 <0>         0.1285
     38 H7         -4.5555   -4.1429    0.0251 H         1 <0>         0.1333
     39 H8         -2.5123   -2.7740    0.0125 H         1 <0>         0.1386
     40 H9         -4.9169    0.7785    0.0672 H         1 <0>         0.1348
     41 H10        -6.9470   -0.6098    0.0682 H         1 <0>         0.1317
     42 H11        -3.4618    1.7299    0.0467 H         1 <0>         0.1616
     43 H12         1.2409   -1.7497   -0.0196 H         1 <0>         0.1603
     44 H13         1.1672    3.8706    0.8945 H         1 <0>         0.4029
     45 H14         3.8919    2.3385   -0.9048 H         1 <0>         0.3857
     46 H15         3.6886   -6.3269    2.0112 H         1 <0>         0.3992
     47 H16         4.4958   -4.3800   -2.1014 H         1 <0>         0.3723
     48 H17         5.8472   -1.1549    0.9133 H         1 <0>         0.3891
     49 O11         1.8938   -5.5735    2.8427 O.co2     1 <0>        -0.7461
@<TRIPOS>BOND
     1    1    6 ar
     2    1    2 ar
     3    1   37 1
     4    2    3 ar
     5    2   38 1
     6    3    4 ar
     7    3   39 1
     8    4    5 ar
     9    4    7 1
    10    5    6 ar
    11    5   40 1
    12    6   41 1
    13    7   13 1
    14    7    8 2
    15    8    9 1
    16    8   42 1
    17    9   10 2
    18    9   11 1
    19   11   17 ar
    20   11   12 ar
    21   12   13 1
    22   12   14 ar
    23   14   15 ar
    24   14   43 1
    25   15   16 ar
    26   15   20 1
    27   16   17 ar
    28   16   19 1
    29   17   18 1
    30   18   44 1
    31   19   45 1
    32   20   21 1
    33   21   22 1
    34   21   31 1
    35   21   23 1
    36   23   24 1
    37   23   25 1
    38   23   36 1
    39   25   26 1
    40   25   27 1
    41   25   35 1
    42   27   28 1
    43   27   29 1
    44   27   34 1
    45   29   30 1
    46   29   31 1
    47   29   32 1
    48   32   33 2
    49   32   49 1
    50   34   46 1
    51   35   47 1
    52   36   48 1
@<TRIPOS>MOLECULE
ZINC35644847
   48    49     0     0     0
SMALL
USER_CHARGES

@<TRIPOS>ATOM
      1 C1          0.0260    1.3110   -1.7665 C.3       1 <0>         0.0882
      2 C2          0.0346   -0.0691   -1.1061 C.3       1 <0>         0.0655
      3 H1          0.7137   -0.0598   -0.2535 H         1 <0>         0.1362
      4 C3         -1.3783   -0.4159   -0.6296 C.3       1 <0>         0.0889
      5 H2         -2.0656   -0.3855   -1.4751 H         1 <0>         0.0630
      6 C4         -1.3736   -1.8229   -0.0241 C.3       1 <0>         0.1323
      7 H3         -2.3874   -2.0983    0.2664 H         1 <0>         0.1003
      8 C5         -0.8526   -2.8146   -1.0688 C.3       1 <0>         0.0571
      9 H4         -1.5292   -2.8327   -1.9232 H         1 <0>         0.0797
     10 C6          0.5400   -2.3752   -1.5283 C.3       1 <0>         0.2137
     11 H5          0.8980   -3.0533   -2.3030 H         1 <0>         0.0865
     12 O1          0.4706   -1.0474   -2.0521 O.3       1 <0>        -0.3751
     13 O2          1.4391   -2.4031   -0.4179 O.3       1 <0>        -0.2847
     14 C7          2.8193   -2.3720   -0.7867 C.3       1 <0>         0.0676
     15 H6          2.9067   -2.3925   -1.8730 H         1 <0>         0.0737
     16 C8          3.5350   -3.5882   -0.1930 C.3       1 <0>         0.1037
     17 H7          4.5785   -3.5855   -0.5081 H         1 <0>         0.0650
     18 O3          3.4677   -3.5294    1.2333 O.3       1 <0>        -0.3645
     19 C9          4.0978   -2.3789    1.8002 C.3       1 <0>         0.2385
     20 H8          5.1486   -2.3604    1.5112 H         1 <0>         0.0412
     21 C10         3.4047   -1.1142    1.2865 C.3       1 <0>         0.0583
     22 H9          3.9116   -0.2344    1.6830 H         1 <0>         0.0526
     23 C11         3.4652   -1.0930   -0.2453 C.3       1 <0>         0.1024
     24 H10         4.5051   -1.0447   -0.5682 H         1 <0>         0.0628
     25 O4          2.7565    0.0459   -0.7379 O.3       1 <0>        -0.5050
     26 O5          2.0404   -1.1112    1.7114 O.3       1 <0>        -0.4935
     27 O6          3.9962   -2.4332    3.2245 O.3       1 <0>        -0.5356
     28 C12         2.8571   -4.8690   -0.6837 C.3       1 <0>         0.0798
     29 O7          3.5941   -6.0040   -0.2246 O.3       1 <0>        -0.5675
     30 O8         -0.7767   -4.1199   -0.4921 O.3       1 <0>        -0.4844
     31 O9         -0.5242   -1.8460    1.1249 O.3       1 <0>        -0.7149
     32 S1         -1.0124   -2.7629    2.2372 S.o2      1 <0>         2.7732
     33 O10        -0.2675   -2.4076    3.4351 O.2       1 <0>        -1.0789
     34 O11        -2.4380   -2.5181    2.3914 O.2       1 <0>        -1.1217
     35 O12        -0.7383   -4.1266    1.8115 O.3       1 <0>        -1.0621
     36 O13        -1.7945    0.5290    0.3583 O.3       1 <0>        -0.5348
     37 O14         1.3669    1.7050   -2.0643 O.3       1 <0>        -0.5423
     38 H11        -0.5536    1.2689   -2.6887 H         1 <0>         0.0404
     39 H12        -0.4234    2.0358   -1.0877 H         1 <0>         0.0506
     40 H13         3.0728    0.8889   -0.3851 H         1 <0>         0.3680
     41 H14         1.9275   -1.1279    2.6717 H         1 <0>         0.3841
     42 H15         4.4140   -3.2108    3.6193 H         1 <0>         0.3865
     43 H16         1.8402   -4.9142   -0.2938 H         1 <0>         0.0852
     44 H17         2.8288   -4.8706   -1.7733 H         1 <0>         0.0508
     45 H18         3.2207   -6.8527   -0.4991 H         1 <0>         0.3789
     46 H19        -0.4537   -4.7999   -1.0990 H         1 <0>         0.3588
     47 H20        -1.8164    1.4432    0.0437 H         1 <0>         0.3676
     48 H21         1.4376    2.5725   -2.4857 H         1 <0>         0.3640
@<TRIPOS>BOND
     1    1    2 1
     2    1   37 1
     3    1   38 1
     4    1   39 1
     5    2    3 1
     6    2   12 1
     7    2    4 1
     8    4    5 1
     9    4    6 1
    10    4   36 1
    11    6    7 1
    12    6    8 1
    13    6   31 1
    14    8    9 1
    15    8   10 1
    16    8   30 1
    17   10   11 1
    18   10   12 1
    19   10   13 1
    20   13   14 1
    21   14   15 1
    22   14   23 1
    23   14   16 1
    24   16   17 1
    25   16   18 1
    26   16   28 1
    27   18   19 1
    28   19   20 1
    29   19   21 1
    30   19   27 1
    31   21   22 1
    32   21   23 1
    33   21   26 1
    34   23   24 1
    35   23   25 1
    36   25   40 1
    37   26   41 1
    38   27   42 1
    39   28   29 1
    40   28   43 1
    41   28   44 1
    42   29   45 1
    43   30   46 1
    44   31   32 1
    45   32   33 2
    46   32   34 2
    47   32   35 1
    48   36   47 1
    49   37   48 1
@<TRIPOS>MOLECULE
ZINC39336681
   56    60     0     0     0
SMALL
USER_CHARGES

@<TRIPOS>ATOM
      1 C1         -0.0167    1.3786    0.0115 C.ar      1 <0>        -0.1875
      2 C2          0.0020   -0.0039   -0.0114 C.ar      1 <0>        -0.0717
      3 C3          1.2063   -0.6796   -0.0274 C.ar      1 <0>        -0.2028
      4 C4          2.3998    0.0311   -0.0206 C.ar      1 <0>         0.2266
      5 C5          2.3775    1.4198    0.0024 C.ar      1 <0>        -0.2019
      6 C6          1.1696    2.0892    0.0184 C.ar      1 <0>        -0.0704
      7 N1          3.6196   -0.6492   -0.0363 N.pl3     1 <0>        -0.6274
      8 C7          4.8906    0.0825   -0.1489 C.3       1 <0>         0.1339
      9 C8          5.7107   -0.5385   -1.2847 C.3       1 <0>         0.0359
     10 N2          5.8440   -1.9833   -1.0549 N.3       1 <0>        -0.5074
     11 C9          4.5356   -2.6505   -1.0847 C.3       1 <0>         0.0478
     12 C10         3.6676   -2.1156    0.0654 C.3       1 <0>         0.1302
     13 C11         6.7655   -2.5880   -2.0261 C.3       1 <0>         0.4198
     14 H1          6.7752   -3.6714   -1.9065 H         1 <0>         0.1243
     15 N3          6.3585   -2.2368   -3.3910 N.2       1 <0>        -0.4441
     16 C12         7.3152   -1.5823   -3.9541 C.2       1 <0>         0.0917
     17 C13         8.4543   -1.4361   -3.0111 C.2       1 <0>         0.3851
     18 N4          9.5235   -0.7888   -3.4254 N.2       1 <0>        -0.5005
     19 C14         9.5987   -0.2728   -4.6528 C.2       1 <0>         0.5379
     20 N5          8.6411   -0.3513   -5.5587 N.2       1 <0>        -0.7288
     21 C15         7.4836   -0.9756   -5.3077 C.2       1 <0>         0.5478
     22 O1          6.6045   -1.0444   -6.1479 O.2       1 <0>        -0.5519
     23 N6         10.7504    0.3853   -4.9981 N.2       1 <0>        -0.7588
     24 N7          8.1198   -2.0486   -1.8383 N.pl3     1 <0>        -0.5929
     25 C16         8.9454   -2.1489   -0.6322 C.3       1 <0>         0.3648
     26 H2          9.1796   -1.1572   -0.2452 H         1 <0>         0.0967
     27 C17        10.2449   -2.9415   -0.9247 C.3       1 <0>         0.0750
     28 H3         10.0526   -3.7624   -1.6156 H         1 <0>         0.0803
     29 C18        10.6210   -3.4768    0.4783 C.3       1 <0>         0.0424
     30 H4         10.9814   -4.5033    0.4110 H         1 <0>         0.0774
     31 C19         9.3007   -3.4196    1.2709 C.3       1 <0>         0.0519
     32 H5          9.4020   -2.7322    2.1107 H         1 <0>         0.0901
     33 O2          8.2814   -2.9435    0.3738 O.3       1 <0>        -0.3317
     34 C20         8.9399   -4.8157    1.7822 C.3       1 <0>         0.0806
     35 O3          7.7793   -4.7339    2.6119 O.3       1 <0>        -0.5595
     36 O4         11.6081   -2.6402    1.0848 O.3       1 <0>        -0.5337
     37 O5         11.2649   -2.0791   -1.4326 O.3       1 <0>        -0.5006
     38 H6         -0.9599    1.9046    0.0194 H         1 <0>         0.1143
     39 H7         -0.9263   -0.5559   -0.0163 H         1 <0>         0.1173
     40 H8          1.2202   -1.7594   -0.0449 H         1 <0>         0.1208
     41 H9          3.3036    1.9754    0.0081 H         1 <0>         0.1206
     42 H10         1.1515    3.1689    0.0362 H         1 <0>         0.1178
     43 H11         4.6912    1.1306   -0.3720 H         1 <0>         0.0842
     44 H12         5.4430    0.0031    0.7874 H         1 <0>         0.0699
     45 H13         5.2049   -0.3664   -2.2348 H         1 <0>         0.0480
     46 H14         6.7000   -0.0816   -1.3109 H         1 <0>         0.0803
     47 H15         4.0461   -2.4490   -2.0376 H         1 <0>         0.0534
     48 H16         4.6726   -3.7253   -0.9658 H         1 <0>         0.0845
     49 H17         4.1046   -2.4022    1.0219 H         1 <0>         0.0714
     50 H18         2.6592   -2.5215   -0.0158 H         1 <0>         0.0856
     51 H19        10.8407    0.7734   -5.8825 H         1 <0>         0.3173
     52 H20         8.7358   -5.4712    0.9356 H         1 <0>         0.0549
     53 H21         9.7722   -5.2173    2.3602 H         1 <0>         0.0583
     54 H22         7.4926   -5.5843    2.9721 H         1 <0>         0.3790
     55 H23        11.8809   -2.9293    1.9663 H         1 <0>         0.3775
     56 H24        12.0976   -2.5290   -1.6309 H         1 <0>         0.3765
@<TRIPOS>BOND
     1    1    6 ar
     2    1    2 ar
     3    1   38 1
     4    2    3 ar
     5    2   39 1
     6    3    4 ar
     7    3   40 1
     8    4    5 ar
     9    4    7 1
    10    5    6 ar
    11    5   41 1
    12    6   42 1
    13    7   12 1
    14    7    8 1
    15    8    9 1
    16    8   43 1
    17    8   44 1
    18    9   10 1
    19    9   45 1
    20    9   46 1
    21   10   11 1
    22   10   13 1
    23   11   12 1
    24   11   47 1
    25   11   48 1
    26   12   49 1
    27   12   50 1
    28   13   14 1
    29   13   24 1
    30   13   15 1
    31   15   16 2
    32   16   21 1
    33   16   17 1
    34   17   18 2
    35   17   24 1
    36   18   19 1
    37   19   20 2
    38   19   23 1
    39   20   21 1
    40   21   22 2
    41   23   51 1
    42   24   25 1
    43   25   26 1
    44   25   33 1
    45   25   27 1
    46   27   28 1
    47   27   29 1
    48   27   37 1
    49   29   30 1
    50   29   31 1
    51   29   36 1
    52   31   32 1
    53   31   33 1
    54   31   34 1
    55   34   35 1
    56   34   52 1
    57   34   53 1
    58   35   54 1
    59   36   55 1
    60   37   56 1
@<TRIPOS>MOLECULE
ZINC16137458
   37    39     0     0     0
SMALL
USER_CHARGES

@<TRIPOS>ATOM
      1 C1         -0.0168    1.3893    0.0097 C.2       1 <0>         0.3358
      2 N1          1.1904    1.9040    0.0009 N.2       1 <0>        -0.5145
      3 C2          2.1201    0.7994    0.0194 C.3       1 <0>        -0.0355
      4 H1          2.2999    0.5037    1.0530 H         1 <0>         0.0836
      5 C3          1.2576   -0.3054   -0.6782 C.3       1 <0>         0.3599
      6 H2          1.1741   -0.1285   -1.7505 H         1 <0>         0.0744
      7 N2          0.0021   -0.0041    0.0020 N.pl3     1 <0>        -0.6476
      8 C4         -0.9913   -0.9351    0.5429 C.3       1 <0>         0.3393
      9 H3         -0.7277   -1.9612    0.2867 H         1 <0>         0.0985
     10 C5         -1.1005   -0.7746    2.0754 C.3       1 <0>         0.0352
     11 H4         -0.7763    0.2208    2.3792 H         1 <0>         0.0785
     12 C6         -2.6057   -0.9661    2.3667 C.3       1 <0>         0.0439
     13 H5         -3.0257   -0.0655    2.8146 H         1 <0>         0.0832
     14 C7         -3.2279   -1.2197    0.9757 C.3       1 <0>         0.0883
     15 H6         -3.3092   -2.2900    0.7858 H         1 <0>         0.0892
     16 O1         -2.3070   -0.6138    0.0412 O.3       1 <0>        -0.3433
     17 C8         -4.6034   -0.5567    0.8786 C.3       1 <0>         0.1428
     18 O2         -5.2104   -0.8995   -0.3688 O.3       1 <0>        -0.7505
     19 P1         -6.6676   -0.3746   -0.8085 P.3       1 <0>         2.1320
     20 O3         -7.7141   -0.7551    0.2935 O.2       1 <0>        -1.1915
     21 O4         -6.6321    1.1823   -0.9797 O.3       1 <0>        -1.1873
     22 O5         -7.0744   -1.0403   -2.1671 O.3       1 <0>        -1.1690
     23 O6         -2.8107   -2.0918    3.2228 O.3       1 <0>        -0.5368
     24 O7         -0.3276   -1.7760    2.7401 O.3       1 <0>        -0.5372
     25 N3          1.9827   -1.5351   -0.4090 N.pl3     1 <0>        -0.7504
     26 C9          3.2920   -1.5053   -0.8570 C.2       1 <0>         0.6134
     27 N4          3.9289   -0.3591   -1.0534 N.2       1 <0>        -0.7463
     28 C10         3.4095    0.8146   -0.7107 C.2       1 <0>         0.5250
     29 O8          3.9770    1.8519   -0.9922 O.2       1 <0>        -0.5799
     30 N5          3.9401   -2.6785   -1.1010 N.2       1 <0>        -0.8724
     31 H7         -0.9218    1.9784    0.0257 H         1 <0>         0.1945
     32 H8         -5.2333   -0.9050    1.6971 H         1 <0>         0.0549
     33 H9         -4.4903    0.5256    0.9424 H         1 <0>         0.0426
     34 H10        -2.3892   -2.0090    4.0892 H         1 <0>         0.3671
     35 H11        -0.3603   -1.7220    3.7050 H         1 <0>         0.3707
     36 H12         4.8578   -2.6694   -1.4153 H         1 <0>         0.3123
     37 H13         1.5892   -2.2997    0.0400 H         1 <0>         0.3971
@<TRIPOS>BOND
     1    1    7 1
     2    1    2 2
     3    1   31 1
     4    2    3 1
     5    3    4 1
     6    3    5 1
     7    3   28 1
     8    5    6 1
     9    5    7 1
    10    5   25 1
    11    7    8 1
    12    8    9 1
    13    8   16 1
    14    8   10 1
    15   10   11 1
    16   10   12 1
    17   10   24 1
    18   12   13 1
    19   12   14 1
    20   12   23 1
    21   14   15 1
    22   14   16 1
    23   14   17 1
    24   17   18 1
    25   17   32 1
    26   17   33 1
    27   18   19 1
    28   19   20 2
    29   19   21 1
    30   19   22 1
    31   23   34 1
    32   24   35 1
    33   25   37 1
    34   25   26 1
    35   26   30 1
    36   26   27 2
    37   27   28 1
    38   28   29 2
    39   30   36 1
@<TRIPOS>MOLECULE
ZINC65742750
   49    52     0     0     0
SMALL
USER_CHARGES

@<TRIPOS>ATOM
      1 C1         -0.0168    1.3897    0.0097 C.ar      1 <0>        -0.0714
      2 C2          1.1691    2.0941    0.0021 C.ar      1 <0>        -0.1506
      3 C3          2.3804    1.4165   -0.0135 C.ar      1 <0>         0.1477
      4 C4          2.4026    0.0286   -0.0217 C.ar      1 <0>        -0.1807
      5 C5          1.2201   -0.6816   -0.0137 C.ar      1 <0>        -0.0455
      6 C6          0.0021   -0.0041    0.0020 C.ar      1 <0>        -0.0767
      7 C7         -1.2713   -0.7647    0.0106 C.2       1 <0>        -0.2187
      8 C8         -2.1308   -0.6985   -1.0391 C.2       1 <0>         0.1156
      9 O1         -3.2790   -1.3788   -1.0759 O.3       1 <0>        -0.2159
     10 C9         -3.8133   -1.9283    0.0323 C.ar      1 <0>         0.1787
     11 C10        -5.1371   -2.3448    0.0457 C.ar      1 <0>        -0.1837
     12 C11        -5.6741   -2.9171    1.1876 C.ar      1 <0>         0.1869
     13 C12        -4.9001   -3.0841    2.3313 C.ar      1 <0>        -0.2064
     14 C13        -3.5799   -2.6737    2.3405 C.ar      1 <0>         0.2171
     15 C14        -3.0336   -2.0875    1.1922 C.ar      1 <0>        -0.2601
     16 C15        -1.6367   -1.6192    1.1574 C.2       1 <0>         0.4302
     17 O2         -0.8325   -1.9156    2.0245 O.2       1 <0>        -0.4355
     18 O3         -2.8202   -2.8370    3.4529 O.3       1 <0>        -0.4763
     19 O4         -6.9707   -3.3190    1.1905 O.3       1 <0>        -0.4895
     20 O5          3.5472    2.1134   -0.0214 O.3       1 <0>        -0.2959
     21 C16         4.7570    1.3529   -0.0375 C.3       1 <0>         0.2145
     22 H1          4.7210    0.5961    0.7461 H         1 <0>         0.0601
     23 C17         5.9481    2.2834    0.2058 C.3       1 <0>         0.1096
     24 H2          5.8610    2.7360    1.1935 H         1 <0>         0.0671
     25 C18         7.2446    1.4714    0.1273 C.3       1 <0>         0.1189
     26 H3          7.2540    0.7219    0.9186 H         1 <0>         0.0784
     27 C19         7.3178    0.7777   -1.2365 C.3       1 <0>         0.0658
     28 H4          8.2103    0.1535   -1.2801 H         1 <0>         0.0662
     29 C20         6.0738   -0.0946   -1.4240 C.3       1 <0>        -0.0016
     30 H5          6.0552   -0.8705   -0.6587 H         1 <0>         0.0566
     31 O6          4.9029    0.7165   -1.3086 O.3       1 <0>        -0.3407
     32 C21         6.1097   -0.7346   -2.7878 C.2       1 <0>         0.5063
     33 O7          6.9832   -1.5403   -3.0604 O.co2     1 <0>        -0.6875
     34 O8          5.2652   -0.4467   -3.6188 O.co2     1 <0>        -0.6578
     35 O9          7.3726    1.7622   -2.2708 O.3       1 <0>        -0.5247
     36 O10         8.3654    2.3443    0.2823 O.3       1 <0>        -0.5416
     37 O11         5.9643    3.3086   -0.7896 O.3       1 <0>        -0.5093
     38 H6         -0.9590    1.9174    0.0260 H         1 <0>         0.1280
     39 H7          1.1551    3.1740    0.0081 H         1 <0>         0.1331
     40 H8          3.3466   -0.4958   -0.0346 H         1 <0>         0.1326
     41 H9          1.2380   -1.7614   -0.0204 H         1 <0>         0.1240
     42 H10        -1.8749   -0.0692   -1.8787 H         1 <0>         0.2037
     43 H11        -5.7497   -2.2223   -0.8352 H         1 <0>         0.1524
     44 H12        -5.3310   -3.5346    3.2132 H         1 <0>         0.1478
     45 H13        -2.3502   -3.6814    3.4877 H         1 <0>         0.4043
     46 H14        -7.0993   -4.2345    0.9070 H         1 <0>         0.4017
     47 H15         7.4205    1.3929   -3.1632 H         1 <0>         0.3755
     48 H16         9.2214    1.8961    0.2429 H         1 <0>         0.3772
     49 H17         5.1697    3.8597   -0.7995 H         1 <0>         0.3703
@<TRIPOS>BOND
     1    1    6 ar
     2    1    2 ar
     3    1   38 1
     4    2    3 ar
     5    2   39 1
     6    3    4 ar
     7    3   20 1
     8    4    5 ar
     9    4   40 1
    10    5    6 ar
    11    5   41 1
    12    6    7 1
    13    7   16 1
    14    7    8 2
    15    8    9 1
    16    8   42 1
    17    9   10 1
    18   10   15 ar
    19   10   11 ar
    20   11   12 ar
    21   11   43 1
    22   12   13 ar
    23   12   19 1
    24   13   14 ar
    25   13   44 1
    26   14   15 ar
    27   14   18 1
    28   15   16 1
    29   16   17 2
    30   18   45 1
    31   19   46 1
    32   20   21 1
    33   21   22 1
    34   21   31 1
    35   21   23 1
    36   23   24 1
    37   23   25 1
    38   23   37 1
    39   25   26 1
    40   25   27 1
    41   25   36 1
    42   27   28 1
    43   27   29 1
    44   27   35 1
    45   29   30 1
    46   29   31 1
    47   29   32 1
    48   32   33 2
    49   32   34 1
    50   35   47 1
    51   36   48 1
    52   37   49 1
@<TRIPOS>MOLECULE
ZINC12503370
   45    46     0     0     0
SMALL
USER_CHARGES
(2R,3S,4S,5S,6S)-2-(hydroxymethyl)-6-[(2R,3S,4S,5S,6R)-4,5,6-trihydroxy-2-(hydroxymethyl)tetrahydropyran-3-yl]sulfanyl-tetrahydropyran-3,4,5-triol
@<TRIPOS>ATOM
      1 C1         -2.9314    1.6507    2.4531 C.3       1 <0>         0.0915
      2 C2         -2.1890    1.1090    1.2298 C.3       1 <0>         0.0982
      3 H1         -2.2178    0.0194    1.2400 H         1 <0>         0.0756
      4 C3         -0.7333    1.5816    1.2655 C.3       1 <0>         0.0942
      5 H2         -0.7045    2.6708    1.2963 H         1 <0>         0.0855
      6 C4         -0.0127    1.0858    0.0080 C.3       1 <0>         0.0856
      7 H3          0.0021   -0.0041    0.0020 H         1 <0>         0.0810
      8 C5         -0.7571    1.5950   -1.2301 C.3       1 <0>         0.0672
      9 H4         -0.2818    1.2012   -2.1285 H         1 <0>         0.0803
     10 C6         -2.2138    1.1219   -1.1683 C.3       1 <0>         0.0738
     11 H5         -2.2429    0.0325   -1.1895 H         1 <0>         0.0869
     12 O1         -2.8159    1.5913    0.0397 O.3       1 <0>        -0.3340
     13 S1         -3.1237    1.7795   -2.5931 S.3       1 <0>        -0.1657
     14 C7         -4.7634    1.0157   -2.4572 C.3       1 <0>        -0.0767
     15 H6         -4.6577   -0.0682   -2.4116 H         1 <0>         0.1185
     16 C8         -5.6083    1.3978   -3.6753 C.3       1 <0>         0.1302
     17 H7         -5.6788    2.4834   -3.7428 H         1 <0>         0.0865
     18 O2         -6.9180    0.8428   -3.5380 O.3       1 <0>        -0.3818
     19 C9         -7.6331    1.3113   -2.3929 C.3       1 <0>         0.2377
     20 H8         -7.7303    2.3958   -2.4435 H         1 <0>         0.0670
     21 C10        -6.8695    0.9257   -1.1233 C.3       1 <0>         0.0636
     22 H9         -7.3905    1.3204   -0.2509 H         1 <0>         0.0761
     23 C11        -5.4576    1.5162   -1.1868 C.3       1 <0>         0.1158
     24 H10        -4.8891    1.2003   -0.3121 H         1 <0>         0.1059
     25 O3         -5.5369    2.9427   -1.2158 O.3       1 <0>        -0.5393
     26 O4         -6.7880   -0.4978   -1.0288 O.3       1 <0>        -0.5475
     27 O5         -8.9325    0.7171   -2.3665 O.3       1 <0>        -0.5458
     28 C12        -4.9521    0.8491   -4.9439 C.3       1 <0>         0.0812
     29 O6         -5.6758    1.3033   -6.0893 O.3       1 <0>        -0.5641
     30 O7         -0.7201    3.0233   -1.2558 O.3       1 <0>        -0.5343
     31 O8          1.3273    1.5821   -0.0021 O.3       1 <0>        -0.5482
     32 O9         -0.0878    1.0527    2.4256 O.3       1 <0>        -0.5580
     33 O10        -4.2562    1.1157    2.4817 O.3       1 <0>        -0.5681
     34 H11        -2.4014    1.3573    3.3592 H         1 <0>         0.0745
     35 H12        -2.9799    2.7382    2.3965 H         1 <0>         0.0568
     36 H13        -5.9661    3.3286   -0.4399 H         1 <0>         0.3834
     37 H14        -7.6474   -0.9389   -0.9846 H         1 <0>         0.3906
     38 H15        -9.4733    0.9195   -3.1422 H         1 <0>         0.3943
     39 H16        -3.9222    1.2013   -5.0017 H         1 <0>         0.0731
     40 H17        -4.9624   -0.2405   -4.9162 H         1 <0>         0.0586
     41 H18        -5.3149    0.9930   -6.9310 H         1 <0>         0.3840
     42 H19        -1.1735    3.4149   -2.0148 H         1 <0>         0.3839
     43 H20         1.8422    1.3086   -0.7736 H         1 <0>         0.3861
     44 H21         0.8409    1.3085    2.5099 H         1 <0>         0.3926
     45 H22        -4.7859    1.4171    3.2325 H         1 <0>         0.3831
@<TRIPOS>BOND
     1    1    2 1
     2    1   33 1
     3    1   34 1
     4    1   35 1
     5    2    3 1
     6    2   12 1
     7    2    4 1
     8    4    5 1
     9    4    6 1
    10    4   32 1
    11    6    7 1
    12    6    8 1
    13    6   31 1
    14    8    9 1
    15    8   10 1
    16    8   30 1
    17   10   11 1
    18   10   12 1
    19   10   13 1
    20   13   14 1
    21   14   15 1
    22   14   23 1
    23   14   16 1
    24   16   17 1
    25   16   18 1
    26   16   28 1
    27   18   19 1
    28   19   20 1
    29   19   21 1
    30   19   27 1
    31   21   22 1
    32   21   23 1
    33   21   26 1
    34   23   24 1
    35   23   25 1
    36   25   36 1
    37   26   37 1
    38   27   38 1
    39   28   29 1
    40   28   39 1
    41   28   40 1
    42   29   41 1
    43   30   42 1
    44   31   43 1
    45   32   44 1
    46   33   45 1
@<TRIPOS>MOLECULE
ZINC22066588
   53    55     0     0     0
SMALL
USER_CHARGES
(2S,4aR,6S,7S,8R,8aS)-6-[(2S,3S,4R,5R)-3,4-dihydroxy-2,5-bis(hydroxymethyl)tetrahydrofuran-2-yl]oxy-2-methoxy-2-methyl-4,4a,6,7,8,8a-hexahydropyrano[5,6-d][1,3]dioxine-7,8-diol
@<TRIPOS>ATOM
      1 C1          3.9229    1.7147   -4.9328 C.3       1 <0>        -0.1433
      2 C2          3.2974    2.1577   -3.6086 C.3       1 <0>         0.4094
      3 O1          4.1182    1.7165   -2.5261 O.3       1 <0>        -0.3556
      4 C3          3.6000    2.0264   -1.2264 C.3       1 <0>         0.0706
      5 C4          2.2066    1.4082   -1.1045 C.3       1 <0>         0.0548
      6 H1          2.2711    0.3106   -1.0721 H         1 <0>         0.0746
      7 C5          1.3427    1.9272   -2.2611 C.3       1 <0>         0.0736
      8 H2          1.2512    3.0233   -2.2750 H         1 <0>         0.0948
      9 O2          1.9852    1.5962   -3.4920 O.3       1 <0>        -0.3864
     10 C6         -0.0386    1.2790   -2.1678 C.3       1 <0>         0.1384
     11 H3          0.0076    0.1925   -2.3332 H         1 <0>         0.0760
     12 C7         -0.6462    1.6254   -0.8028 C.3       1 <0>         0.0813
     13 H4         -1.6424    1.1745   -0.6832 H         1 <0>         0.0724
     14 C8          0.2991    1.1730    0.3115 C.3       1 <0>         0.2276
     15 H5          0.4409    0.0824    0.3359 H         1 <0>         0.1055
     16 O3          1.5893    1.7658    0.1299 O.3       1 <0>        -0.3678
     17 O4         -0.2339    1.5749    1.5750 O.3       1 <0>        -0.3252
     18 C9          0.3773    0.9314    2.6950 C.3       1 <0>         0.2830
     19 C10         0.0323   -0.5705    2.6889 C.3       1 <0>         0.0735
     20 H6         -0.6191   -0.8913    3.5152 H         1 <0>         0.0952
     21 C11         1.4093   -1.2760    2.6363 C.3       1 <0>         0.0623
     22 H7          1.4711   -2.2464    3.1505 H         1 <0>         0.0852
     23 C12         2.3610   -0.1698    3.1588 C.3       1 <0>         0.0428
     24 H8          2.4168   -0.0839    4.2540 H         1 <0>         0.0881
     25 O5          1.8075    1.0416    2.6014 O.3       1 <0>        -0.3243
     26 C13         3.7852   -0.3996    2.6493 C.3       1 <0>         0.0906
     27 O6          4.6626    0.5631    3.2372 O.3       1 <0>        -0.5909
     28 O7          1.7427   -1.6445    1.2965 O.3       1 <0>        -0.5797
     29 O8         -0.7433   -0.9008    1.5350 O.3       1 <0>        -0.5689
     30 C14        -0.1132    1.5726    3.9946 C.3       1 <0>         0.0910
     31 O9          0.1519    2.9764    3.9628 O.3       1 <0>        -0.5738
     32 O10        -0.8434    3.0379   -0.7148 O.3       1 <0>        -0.5750
     33 O11        -0.8759    1.7801   -3.2118 O.3       1 <0>        -0.5755
     34 O12         3.2066    3.5836   -3.5839 O.3       1 <0>        -0.4138
     35 C15         2.3132    4.1261   -4.5583 C.3       1 <0>         0.0353
     36 H9          4.9311    2.1451   -5.0242 H         1 <0>         0.0915
     37 H10         3.2981    2.0636   -5.7683 H         1 <0>         0.0861
     38 H11         3.9891    0.6170   -4.9579 H         1 <0>         0.0851
     39 H12         4.2662    1.6091   -0.4570 H         1 <0>         0.1117
     40 H13         3.5399    3.1182   -1.1064 H         1 <0>         0.0783
     41 H14         4.1143   -1.4123    2.9251 H         1 <0>         0.0533
     42 H15         3.8047   -0.2932    1.5546 H         1 <0>         0.0572
     43 H16         5.7341    0.5549    2.9884 H         1 <0>         0.4133
     44 H17         2.6932   -2.1572    1.0874 H         1 <0>         0.4115
     45 H18        -1.0763   -1.9368    1.3742 H         1 <0>         0.4143
     46 H19        -1.1954    1.4061    4.0999 H         1 <0>         0.0597
     47 H20         0.4122    1.1195    4.8482 H         1 <0>         0.0599
     48 H21        -0.1325    3.6093    4.8164 H         1 <0>         0.4104
     49 H22        -1.2731    3.4775    0.1974 H         1 <0>         0.4148
     50 H23        -1.9129    1.4248   -3.3035 H         1 <0>         0.4078
     51 H24         2.3005    5.2228   -4.4738 H         1 <0>         0.0915
     52 H25         1.3003    3.7333   -4.3859 H         1 <0>         0.0583
     53 H26         2.6511    3.8398   -5.5652 H         1 <0>         0.0493
@<TRIPOS>BOND
     1    1    2 1
     2    1   36 1
     3    1   37 1
     4    1   38 1
     5    2    9 1
     6    2    3 1
     7    2   34 1
     8    3    4 1
     9    4    5 1
    10    4   39 1
    11    4   40 1
    12    5    6 1
    13    5   16 1
    14    5    7 1
    15    7    8 1
    16    7    9 1
    17    7   10 1
    18   10   11 1
    19   10   12 1
    20   10   33 1
    21   12   13 1
    22   12   14 1
    23   12   32 1
    24   14   15 1
    25   14   16 1
    26   14   17 1
    27   17   18 1
    28   18   25 1
    29   18   19 1
    30   18   30 1
    31   19   20 1
    32   19   21 1
    33   19   29 1
    34   21   22 1
    35   21   23 1
    36   21   28 1
    37   23   24 1
    38   23   25 1
    39   23   26 1
    40   26   27 1
    41   26   41 1
    42   26   42 1
    43   27   43 1
    44   28   44 1
    45   29   45 1
    46   30   31 1
    47   30   46 1
    48   30   47 1
    49   31   48 1
    50   32   49 1
    51   33   50 1
    52   34   35 1
    53   35   51 1
    54   35   52 1
    55   35   53 1
@<TRIPOS>MOLECULE
ZINC34782751
   49    51     0     0     0
SMALL
USER_CHARGES

@<TRIPOS>ATOM
      1 C1         -0.0184    1.5028    0.0103 C.3       1 <0>        -0.1187
      2 C2          0.0021   -0.0041    0.0020 C.2       1 <0>         0.0665
      3 C3          0.0059   -0.7279   -1.1970 C.2       1 <0>        -0.2598
      4 C4         -0.0084   -0.2146   -2.5886 C.2       1 <0>         0.5886
      5 O1         -0.0253    0.9831   -2.8033 O.2       1 <0>        -0.4844
      6 N1         -0.0021   -1.0891   -3.6100 N.am      1 <0>        -0.5343
      7 C5          0.0165   -2.4160   -3.4055 C.2       1 <0>         0.7260
      8 O2          0.0215   -3.1647   -4.3634 O.2       1 <0>        -0.5219
      9 N2          0.0301   -2.9362   -2.1641 N.am      1 <0>        -0.4756
     10 C6          0.0255   -2.1238   -1.0656 C.2       1 <0>         0.0787
     11 S1          0.0381   -2.4060    0.5815 S.3       1 <0>         0.2796
     12 C7          0.0233   -0.7220    1.1627 C.2       1 <0>        -0.2799
     13 C8          0.0307   -0.2304    2.5425 C.2       1 <0>         0.6162
     14 O3          0.0170    0.9668    2.7621 O.2       1 <0>        -0.5020
     15 N3          0.0527   -1.1035    3.5689 N.am      1 <0>        -0.5742
     16 N4          0.0596   -0.6451    4.8556 N.3       1 <0>        -0.5971
     17 C9          0.0498   -4.3905   -1.9889 C.3       1 <0>         0.0874
     18 C10         1.4772   -4.8710   -1.9367 C.2       1 <0>         0.4996
     19 O4          2.3883   -4.0768   -2.0362 O.2       1 <0>        -0.5073
     20 N5          1.7411   -6.1833   -1.7796 N.am      1 <0>        -0.6118
     21 C11         0.6524   -7.1663   -1.6629 C.3       1 <0>         0.0666
     22 C12         0.9172   -8.3016   -2.6583 C.3       1 <0>         0.0453
     23 O5          2.2440   -8.7976   -2.4644 O.3       1 <0>        -0.3753
     24 C13         3.2710   -7.8346   -2.7128 C.3       1 <0>         0.0469
     25 C14         3.1266   -6.6761   -1.7258 C.3       1 <0>         0.0773
     26 C15        -0.0163   -0.5802   -4.9837 C.3       1 <0>         0.0884
     27 C16         1.3995   -0.3865   -5.4623 C.2       1 <0>         0.5068
     28 O6          2.3289   -0.6478   -4.7282 O.2       1 <0>        -0.5247
     29 N6          1.6329    0.0771   -6.7061 N.am      1 <0>        -0.8479
     30 H1          1.0042    1.8801    0.0026 H         1 <0>         0.0860
     31 H2         -0.5455    1.8639   -0.8728 H         1 <0>         0.0861
     32 H3         -0.5286    1.8543    0.9071 H         1 <0>         0.0953
     33 H4          0.0636   -2.0576    3.3939 H         1 <0>         0.3973
     34 H5         -0.7282   -0.0385    5.0276 H         1 <0>         0.3510
     35 H6          0.0764   -1.4109    5.5123 H         1 <0>         0.3616
     36 H7         -0.4556   -4.6512   -1.0589 H         1 <0>         0.1267
     37 H8         -0.4628   -4.8643   -2.8261 H         1 <0>         0.1436
     38 H9          0.6256   -7.5658   -0.6491 H         1 <0>         0.0888
     39 H10        -0.2996   -6.6890   -1.8952 H         1 <0>         0.0930
     40 H11         0.2001   -9.1056   -2.4928 H         1 <0>         0.1121
     41 H12         0.8145   -7.9248   -3.6760 H         1 <0>         0.0598
     42 H13         4.2472   -8.3027   -2.5865 H         1 <0>         0.1119
     43 H14         3.1768   -7.4562   -3.7307 H         1 <0>         0.0582
     44 H15         3.8124   -5.8743   -1.9998 H         1 <0>         0.1043
     45 H16         3.3532   -7.0254   -0.7184 H         1 <0>         0.0825
     46 H17        -0.5239   -1.2954   -5.6309 H         1 <0>         0.1345
     47 H18        -0.5432    0.3736   -5.0124 H         1 <0>         0.1368
     48 H19         0.8896    0.2861   -7.2932 H         1 <0>         0.4040
     49 H20         2.5442    0.2018   -7.0141 H         1 <0>         0.4077
@<TRIPOS>BOND
     1    1    2 1
     2    1   30 1
     3    1   31 1
     4    1   32 1
     5    2   12 2
     6    2    3 1
     7    3   10 2
     8    3    4 1
     9    4    5 2
    10    4    6 am
    11    6    7 am
    12    6   26 1
    13    7    8 2
    14    7    9 am
    15    9   10 1
    16    9   17 1
    17   10   11 1
    18   11   12 1
    19   12   13 1
    20   13   14 2
    21   13   15 am
    22   15   16 1
    23   15   33 1
    24   16   34 1
    25   16   35 1
    26   17   18 1
    27   17   36 1
    28   17   37 1
    29   18   19 2
    30   18   20 am
    31   20   25 1
    32   20   21 1
    33   21   22 1
    34   21   38 1
    35   21   39 1
    36   22   23 1
    37   22   40 1
    38   22   41 1
    39   23   24 1
    40   24   25 1
    41   24   42 1
    42   24   43 1
    43   25   44 1
    44   25   45 1
    45   26   27 1
    46   26   46 1
    47   26   47 1
    48   27   28 2
    49   27   29 am
    50   29   48 1
    51   29   49 1
@<TRIPOS>MOLECULE
ZINC38653928
   52    53     0     0     0
SMALL
USER_CHARGES

@<TRIPOS>ATOM
      1 C1          1.3550    0.1361    1.0054 C.2       1 <0>        -0.1859
      2 C2          1.1815   -1.1343    0.7368 C.2       1 <0>        -0.1407
      3 C3         -0.2085   -1.7161    0.7115 C.3       1 <0>         0.0868
      4 O1         -0.3554   -2.5489   -0.4404 O.3       1 <0>        -0.3334
      5 C4         -1.6447   -3.1532   -0.5601 C.3       1 <0>         0.0692
      6 C5         -1.6878   -4.0174   -1.8219 C.3       1 <0>         0.0397
      7 H1         -1.3995   -3.4333   -2.6959 H         1 <0>         0.0960
      8 C6         -3.0982   -4.6301   -2.0160 C.3       1 <0>         0.0353
      9 H2         -3.7499   -3.9429   -2.5556 H         1 <0>         0.0835
     10 C7         -2.7920   -5.8854   -2.8687 C.3       1 <0>         0.0663
     11 H3         -2.9715   -5.6825   -3.9245 H         1 <0>         0.0880
     12 C8         -1.2958   -6.1563   -2.6183 C.3       1 <0>         0.2721
     13 O2         -0.8324   -5.1715   -1.6771 O.3       1 <0>        -0.3153
     14 C9         -1.1112   -7.5601   -2.0385 C.3       1 <0>         0.1158
     15 O3          0.2837   -7.8434   -1.9117 O.3       1 <0>        -0.5553
     16 O4         -0.5683   -6.0337   -3.8422 O.3       1 <0>        -0.3380
     17 C10        -0.6656   -4.7438   -4.4494 C.3       1 <0>         0.2147
     18 H4         -1.6664   -4.3420   -4.2910 H         1 <0>         0.0461
     19 C11        -0.3959   -4.8650   -5.9515 C.3       1 <0>         0.0647
     20 H5         -1.1565   -5.4982   -6.4082 H         1 <0>         0.0653
     21 C12        -0.4425   -3.4710   -6.5848 C.3       1 <0>         0.0778
     22 H6         -1.4418   -3.0513   -6.4694 H         1 <0>         0.0744
     23 C13         0.5766   -2.5687   -5.8822 C.3       1 <0>         0.0905
     24 H7          0.5114   -1.5597   -6.2893 H         1 <0>         0.0710
     25 C14         0.2693   -2.5362   -4.3828 C.3       1 <0>         0.1121
     26 H8         -0.7191   -2.1053   -4.2235 H         1 <0>         0.0699
     27 O5          0.2983   -3.8669   -3.8627 O.3       1 <0>        -0.3389
     28 C15         1.3187   -1.6848   -3.6652 C.3       1 <0>         0.0879
     29 O6          0.9580   -1.5435   -2.2897 O.3       1 <0>        -0.5363
     30 O7          1.8934   -3.0834   -6.0900 O.3       1 <0>        -0.5253
     31 O8         -0.1215   -3.5662   -7.9740 O.3       1 <0>        -0.5465
     32 O9          0.8944   -5.4426   -6.1599 O.3       1 <0>        -0.5196
     33 O10        -3.5833   -6.9921   -2.4318 O.3       1 <0>        -0.5307
     34 O11        -3.6734   -4.9941   -0.7596 O.3       1 <0>        -0.5343
     35 H9          2.3511    0.5530    1.0235 H         1 <0>         0.1035
     36 H10         0.5016    0.7674    1.2043 H         1 <0>         0.0954
     37 H11         2.0345   -1.7647    0.5335 H         1 <0>         0.1180
     38 H12        -0.3705   -2.3091    1.6116 H         1 <0>         0.0531
     39 H13        -0.9396   -0.9087    0.6718 H         1 <0>         0.0485
     40 H14        -1.8366   -3.7760    0.3136 H         1 <0>         0.0592
     41 H15        -2.4057   -2.3756   -0.6262 H         1 <0>         0.0566
     42 H16        -1.5833   -7.6130   -1.0575 H         1 <0>         0.0762
     43 H17        -1.5715   -8.2912   -2.7031 H         1 <0>         0.0691
     44 H18         0.4771   -8.7455   -1.6218 H         1 <0>         0.3800
     45 H19         2.2919   -2.1703   -3.7377 H         1 <0>         0.0649
     46 H20         1.3682   -0.7005   -4.1309 H         1 <0>         0.0545
     47 H21         1.5802   -1.0140   -1.7724 H         1 <0>         0.3708
     48 H22         2.1529   -3.1359   -7.0201 H         1 <0>         0.3831
     49 H23        -0.7242   -4.1287   -8.4793 H         1 <0>         0.3853
     50 H24         0.9959   -6.3261   -5.7801 H         1 <0>         0.3833
     51 H25        -4.5364   -6.8509   -2.5140 H         1 <0>         0.3893
     52 H26        -3.8006   -4.2503   -0.1550 H         1 <0>         0.3824
@<TRIPOS>BOND
     1    1    2 2
     2    1   35 1
     3    1   36 1
     4    2    3 1
     5    2   37 1
     6    3    4 1
     7    3   38 1
     8    3   39 1
     9    4    5 1
    10    5    6 1
    11    5   40 1
    12    5   41 1
    13    6    7 1
    14    6   13 1
    15    6    8 1
    16    8    9 1
    17    8   10 1
    18    8   34 1
    19   10   11 1
    20   10   12 1
    21   10   33 1
    22   12   13 1
    23   12   14 1
    24   12   16 1
    25   14   15 1
    26   14   42 1
    27   14   43 1
    28   15   44 1
    29   16   17 1
    30   17   18 1
    31   17   27 1
    32   17   19 1
    33   19   20 1
    34   19   21 1
    35   19   32 1
    36   21   22 1
    37   21   23 1
    38   21   31 1
    39   23   24 1
    40   23   25 1
    41   23   30 1
    42   25   26 1
    43   25   27 1
    44   25   28 1
    45   28   29 1
    46   28   45 1
    47   28   46 1
    48   29   47 1
    49   30   48 1
    50   31   49 1
    51   32   50 1
    52   33   51 1
    53   34   52 1
@<TRIPOS>MOLECULE
ZINC44170882
   48    48     0     0     0
SMALL
USER_CHARGES

@<TRIPOS>ATOM
      1 C1         -0.0184    1.5028    0.0103 C.3       1 <0>        -0.1457
      2 C2          0.0021   -0.0041    0.0020 C.2       1 <0>         0.4583
      3 O1          1.0565   -0.5939   -0.0112 O.2       1 <0>        -0.5090
      4 O2         -1.1511   -0.6910    0.0093 O.3       1 <0>        -0.3399
      5 C3         -1.0570   -2.1168    0.0008 C.3       1 <0>         0.0812
      6 C4         -2.4627   -2.7208    0.0110 C.3       1 <0>         0.0707
      7 H1         -3.0213   -2.3273    0.8602 H         1 <0>         0.1273
      8 C5         -2.3631   -4.2441    0.1271 C.3       1 <0>         0.0648
      9 H2         -1.8887   -4.5071    1.0725 H         1 <0>         0.1234
     10 C6         -3.7709   -4.8454    0.0760 C.3       1 <0>         0.1031
     11 H3         -4.3488   -4.4939    0.9308 H         1 <0>         0.1183
     12 C7         -4.4556   -4.4048   -1.2215 C.3       1 <0>         0.0623
     13 H4         -3.9049   -4.7984   -2.0758 H         1 <0>         0.1323
     14 C8         -4.4745   -2.8754   -1.2855 C.3       1 <0>         0.2766
     15 O3         -3.1367   -2.3797   -1.2021 O.3       1 <0>        -0.3454
     16 C9         -5.2834   -2.3341   -0.1349 C.2       1 <0>         0.4691
     17 O4         -4.7925   -1.5254    0.6240 O.2       1 <0>        -0.5183
     18 N1         -6.5522   -2.7488    0.0507 N.am      1 <0>        -0.8217
     19 O5         -5.0615   -2.4572   -2.5194 O.3       1 <0>        -0.5010
     20 O6         -5.7953   -4.9016   -1.2470 O.3       1 <0>        -0.3376
     21 C10        -6.3234   -5.1684   -2.4518 C.2       1 <0>         0.4515
     22 O7         -5.6700   -4.9863   -3.4517 O.2       1 <0>        -0.4764
     23 C11        -7.7314   -5.6952   -2.5574 C.3       1 <0>        -0.1477
     24 O8         -3.6833   -6.2713    0.1120 O.3       1 <0>        -0.3308
     25 C12        -4.7061   -6.9305    0.6786 C.2       1 <0>         0.4547
     26 O9         -5.6446   -6.3173    1.1292 O.2       1 <0>        -0.4875
     27 C13        -4.6837   -8.4355    0.7529 C.3       1 <0>        -0.1460
     28 O10        -1.5844   -4.7556   -0.9564 O.3       1 <0>        -0.3283
     29 C14        -0.2605   -4.8588   -0.7601 C.2       1 <0>         0.4588
     30 O11         0.2212   -4.5257    0.2968 O.2       1 <0>        -0.5034
     31 C15         0.6249   -5.3899   -1.8577 C.3       1 <0>        -0.1463
     32 H5          1.0042    1.8801    0.0026 H         1 <0>         0.1032
     33 H6         -0.5455    1.8639   -0.8728 H         1 <0>         0.1016
     34 H7         -0.5286    1.8543    0.9071 H         1 <0>         0.1019
     35 H8         -0.5289   -2.4407   -0.8960 H         1 <0>         0.0731
     36 H9         -0.5119   -2.4503    0.8838 H         1 <0>         0.1033
     37 H10        -6.9448   -3.3956   -0.5563 H         1 <0>         0.4073
     38 H11        -7.0729   -2.4004    0.7913 H         1 <0>         0.4062
     39 H12        -5.1062   -1.4974   -2.6284 H         1 <0>         0.3977
     40 H13        -8.1583   -5.7937   -1.5593 H         1 <0>         0.0933
     41 H14        -8.3353   -5.0030   -3.1441 H         1 <0>         0.1102
     42 H15        -7.7190   -6.6699   -3.0451 H         1 <0>         0.1091
     43 H16        -3.8134   -8.7582    1.3244 H         1 <0>         0.1026
     44 H17        -5.5913   -8.7887    1.2425 H         1 <0>         0.1067
     45 H18        -4.6302   -8.8483   -0.2546 H         1 <0>         0.1021
     46 H19         0.0167   -5.6360   -2.7281 H         1 <0>         0.0944
     47 H20         1.3598   -4.6324   -2.1303 H         1 <0>         0.1096
     48 H21         1.1388   -6.2856   -1.5086 H         1 <0>         0.1104
@<TRIPOS>BOND
     1    1    2 1
     2    1   32 1
     3    1   33 1
     4    1   34 1
     5    2    3 2
     6    2    4 1
     7    4    5 1
     8    5    6 1
     9    5   35 1
    10    5   36 1
    11    6    7 1
    12    6   15 1
    13    6    8 1
    14    8    9 1
    15    8   10 1
    16    8   28 1
    17   10   11 1
    18   10   12 1
    19   10   24 1
    20   12   13 1
    21   12   14 1
    22   12   20 1
    23   14   15 1
    24   14   16 1
    25   14   19 1
    26   16   17 2
    27   16   18 am
    28   18   37 1
    29   18   38 1
    30   19   39 1
    31   20   21 1
    32   21   22 2
    33   21   23 1
    34   23   40 1
    35   23   41 1
    36   23   42 1
    37   24   25 1
    38   25   26 2
    39   25   27 1
    40   27   43 1
    41   27   44 1
    42   27   45 1
    43   28   29 1
    44   29   30 2
    45   29   31 1
    46   31   46 1
    47   31   47 1
    48   31   48 1
@<TRIPOS>MOLECULE
ZINC13030449
   43    44     0     0     0
SMALL
USER_CHARGES
4-methyl-3-[[[2-oxo-2-(p-tolylamino)acetyl]amino]sulfamoyl]benzoic acid
@<TRIPOS>ATOM
      1 C1         -1.8512   -4.8251   -0.6086 C.3       1 <0>        -0.1138
      2 C2         -1.7296   -3.3475   -0.3381 C.ar      1 <0>        -0.0980
      3 C3         -2.6221   -2.7271    0.5169 C.ar      1 <0>        -0.1013
      4 C4         -2.5136   -1.3733    0.7671 C.ar      1 <0>        -0.1332
      5 C5         -1.5062   -0.6347    0.1592 C.ar      1 <0>         0.1350
      6 C6         -0.6143   -1.2603   -0.7030 C.ar      1 <0>        -0.1138
      7 C7         -0.7256   -2.6153   -0.9450 C.ar      1 <0>        -0.0998
      8 N1         -1.3938    0.7353    0.4097 N.am      1 <0>        -0.6413
      9 C8         -0.1794    1.3196    0.4282 C.2       1 <0>         0.5181
     10 O1          0.8219    0.6418    0.3222 O.2       1 <0>        -0.4837
     11 C9         -0.0657    2.8011    0.5791 C.2       1 <0>         0.5161
     12 O2         -1.0670    3.4794    0.6800 O.2       1 <0>        -0.4987
     13 N2          1.1487    3.3854    0.5976 N.am      1 <0>        -0.4750
     14 N3          1.2553    4.7751    0.7391 N.pl3     1 <0>        -0.9027
     15 S1          2.1621    5.4151    1.9681 S.o2      1 <0>         2.6942
     16 O3          2.2775    6.8068    1.7055 O.2       1 <0>        -0.9373
     17 O4          1.6172    4.9111    3.1799 O.2       1 <0>        -0.9387
     18 C10         3.7833    4.7396    1.8257 C.ar      1 <0>        -0.6993
     19 C11         4.2775    3.9206    2.8199 C.ar      1 <0>         0.0181
     20 C12         5.5600    3.3818    2.7027 C.ar      1 <0>        -0.1338
     21 C13         6.3383    3.6850    1.5836 C.ar      1 <0>        -0.0122
     22 C14         5.8340    4.5097    0.5998 C.ar      1 <0>        -0.1557
     23 C15         4.5599    5.0363    0.7199 C.ar      1 <0>         0.0066
     24 C16         4.0156    5.9366   -0.3591 C.3       1 <0>        -0.1397
     25 C17         6.0936    2.4993    3.7604 C.2       1 <0>         0.4892
     26 O5          5.4143    2.2373    4.7328 O.co2     1 <0>        -0.6222
     27 H1         -2.5037   -4.9848   -1.4670 H         1 <0>         0.0694
     28 H2         -0.8649   -5.2380   -0.8202 H         1 <0>         0.0670
     29 H3         -2.2729   -5.3211    0.2656 H         1 <0>         0.0661
     30 H4         -3.4050   -3.3018    0.9893 H         1 <0>         0.1276
     31 H5         -3.2109   -0.8894    1.4350 H         1 <0>         0.1293
     32 H6          0.1673   -0.6882   -1.1808 H         1 <0>         0.1361
     33 H7         -0.0301   -3.1031   -1.6119 H         1 <0>         0.1276
     34 H8         -2.1898    1.2659    0.5703 H         1 <0>         0.4240
     35 H9          1.9489    2.8437    0.5129 H         1 <0>         0.4385
     36 H10         0.7980    5.3625    0.1172 H         1 <0>         0.4286
     37 H11         3.6720    3.6937    3.6850 H         1 <0>         0.1498
     38 H12         7.3330    3.2750    1.4888 H         1 <0>         0.1418
     39 H13         6.4349    4.7453   -0.2661 H         1 <0>         0.1296
     40 H14         4.1822    6.9776   -0.0821 H         1 <0>         0.0949
     41 H15         4.5243    5.7251   -1.2997 H         1 <0>         0.0811
     42 H16         2.9466    5.7584   -0.4761 H         1 <0>         0.0608
     43 O6          7.3335    1.9850    3.6467 O.co2     1 <0>        -0.7492
@<TRIPOS>BOND
     1    1    2 1
     2    1   27 1
     3    1   28 1
     4    1   29 1
     5    2    7 ar
     6    2    3 ar
     7    3    4 ar
     8    3   30 1
     9    4    5 ar
    10    4   31 1
    11    5    6 ar
    12    5    8 1
    13    6    7 ar
    14    6   32 1
    15    7   33 1
    16    8    9 am
    17    8   34 1
    18    9   10 2
    19    9   11 1
    20   11   12 2
    21   11   13 am
    22   13   14 1
    23   13   35 1
    24   14   15 1
    25   14   36 1
    26   15   16 2
    27   15   17 2
    28   15   18 1
    29   18   23 ar
    30   18   19 ar
    31   19   20 ar
    32   19   37 1
    33   20   21 ar
    34   20   25 1
    35   21   22 ar
    36   21   38 1
    37   22   23 ar
    38   22   39 1
    39   23   24 1
    40   24   40 1
    41   24   41 1
    42   24   42 1
    43   25   26 2
    44   25   43 1
@<TRIPOS>MOLECULE
ZINC05315941
   43    45     0     0     0
SMALL
USER_CHARGES

@<TRIPOS>ATOM
      1 C1         -0.1047    2.1433    0.8655 C.3       1 <0>        -0.1080
      2 C2         -0.0741    0.6486    0.6757 C.ar      1 <0>        -0.1175
      3 C3         -0.7383    0.0752   -0.3935 C.ar      1 <0>        -0.0431
      4 C4         -0.7124   -1.2939   -0.5705 C.ar      1 <0>        -0.1373
      5 C5         -0.0175   -2.0958    0.3267 C.ar      1 <0>         0.2340
      6 C6          0.6489   -1.5165    1.3991 C.ar      1 <0>        -0.0906
      7 C7          0.6227   -0.1459    1.5674 C.ar      1 <0>        -0.0369
      8 N1          1.3904   -2.3667    2.3575 N.pl3     1 <0>         0.0441
      9 O1          1.8875   -1.8742    3.3434 O.2       1 <0>        -0.1574
     10 O2          1.4990   -3.5535    2.1543 O.3       1 <0>        -0.1689
     11 N2          0.0105   -3.4815    0.1509 N.am      1 <0>        -0.6476
     12 C8         -0.1616   -4.0086   -1.0775 C.2       1 <0>         0.5274
     13 O3         -0.2348   -3.2792   -2.0469 O.2       1 <0>        -0.5025
     14 C9         -0.2615   -5.4753   -1.2460 C.2       1 <0>         0.3069
     15 O4         -0.0826   -6.2904   -0.1847 O.3       1 <0>        -0.5639
     16 C10        -0.5381   -6.0110   -2.4901 C.2       1 <0>        -0.3621
     17 C11        -0.7610   -7.4610   -2.6353 C.2       1 <0>         0.3391
     18 N3         -0.8327   -8.3843   -1.6992 N.2       1 <0>        -0.5322
     19 C12        -1.0422   -9.6792   -1.9751 C.ar      1 <0>         0.1326
     20 C13        -1.1389  -10.7622   -1.0673 C.ar      1 <0>        -0.0936
     21 C14        -1.3548  -12.0277   -1.5134 C.ar      1 <0>        -0.1075
     22 C15        -1.4891  -12.3118   -2.8660 C.ar      1 <0>        -0.1436
     23 C16        -1.4019  -11.2842   -3.7863 C.ar      1 <0>        -0.0543
     24 C17        -1.1835  -10.0013   -3.3470 C.ar      1 <0>        -0.1725
     25 S1         -1.0108   -8.4144   -4.1268 S.3       1 <0>        -0.1124
     26 C18        -0.6099   -5.1353   -3.6673 C.2       1 <0>         0.4399
     27 O5          0.3855   -4.5594   -4.0573 O.2       1 <0>        -0.4255
     28 C19        -1.9058   -4.9535   -4.3838 C.2       1 <0>         0.4827
     29 O6         -2.9191   -5.4549   -3.9420 O.2       1 <0>        -0.5043
     30 N4         -1.9514   -4.2325   -5.5216 N.am      1 <0>        -0.8395
     31 H1          0.7322    2.5945    0.3325 H         1 <0>         0.0741
     32 H2         -1.0413    2.5402    0.4739 H         1 <0>         0.0720
     33 H3         -0.0272    2.3763    1.9275 H         1 <0>         0.0704
     34 H4         -1.2782    0.6990   -1.0905 H         1 <0>         0.1436
     35 H5         -1.2318   -1.7411   -1.4052 H         1 <0>         0.1676
     36 H6          1.1437    0.3055    2.3988 H         1 <0>         0.1531
     37 H7          0.1539   -4.0643    0.9130 H         1 <0>         0.4373
     38 H8         -1.0396  -10.5801   -0.0074 H         1 <0>         0.1248
     39 H9         -1.4232  -12.8333   -0.7974 H         1 <0>         0.1209
     40 H10        -1.6599  -13.3260   -3.1957 H         1 <0>         0.1249
     41 H11        -1.5038  -11.4884   -4.8419 H         1 <0>         0.1202
     42 H12        -1.1416   -3.8318   -5.8746 H         1 <0>         0.4068
     43 H13        -2.7939   -4.1143   -5.9874 H         1 <0>         0.3988
@<TRIPOS>BOND
     1    1    2 1
     2    1   31 1
     3    1   32 1
     4    1   33 1
     5    2    7 ar
     6    2    3 ar
     7    3    4 ar
     8    3   34 1
     9    4    5 ar
    10    4   35 1
    11    5    6 ar
    12    5   11 1
    13    6    7 ar
    14    6    8 1
    15    7   36 1
    16    8    9 2
    17    8   10 1
    18   11   12 am
    19   11   37 1
    20   12   13 2
    21   12   14 1
    22   14   15 1
    23   14   16 2
    24   16   17 1
    25   16   26 1
    26   17   25 1
    27   17   18 2
    28   18   19 1
    29   19   24 ar
    30   19   20 ar
    31   20   21 ar
    32   20   38 1
    33   21   22 ar
    34   21   39 1
    35   22   23 ar
    36   22   40 1
    37   23   24 ar
    38   23   41 1
    39   24   25 1
    40   26   27 2
    41   26   28 1
    42   28   29 2
    43   28   30 am
    44   30   42 1
    45   30   43 1
@<TRIPOS>MOLECULE
ZINC44458853
   43    45     0     0     0
SMALL
USER_CHARGES

@<TRIPOS>ATOM
      1 C1          1.0722   -0.4527   -0.7660 C.ar      1 <0>        -0.1432
      2 C2          2.2561    0.2585   -0.7779 C.ar      1 <0>        -0.0022
      3 C3          2.3763    1.4164   -0.0315 C.ar      1 <0>        -0.6342
      4 C4          1.3123    1.8662    0.7286 C.ar      1 <0>        -0.0024
      5 C5          0.1256    1.1598    0.7444 C.ar      1 <0>        -0.1660
      6 C6          0.0017   -0.0036   -0.0037 C.ar      1 <0>         0.1757
      7 N1         -1.1992   -0.7216    0.0101 N.am      1 <0>        -0.6660
      8 C7         -1.1825   -2.0648   -0.0990 C.2       1 <0>         0.5076
      9 O1         -0.1253   -2.6591   -0.1129 O.2       1 <0>        -0.5114
     10 C8         -2.4775   -2.8284   -0.2038 C.3       1 <0>         0.1044
     11 N2         -2.1922   -4.2613   -0.3114 N.am      1 <0>        -0.7147
     12 C9         -3.2052   -5.1441   -0.4167 C.2       1 <0>         0.5838
     13 O2         -4.3560   -4.7512   -0.4223 O.2       1 <0>        -0.5451
     14 C10        -2.9180   -6.5863   -0.5250 C.2       1 <0>        -0.2545
     15 C11        -1.5802   -7.0503   -0.5131 C.2       1 <0>         0.0021
     16 C12        -1.3445   -8.3856   -0.6146 C.2       1 <0>        -0.2377
     17 C13        -2.4300   -9.2744   -0.7287 C.2       1 <0>         0.5168
     18 O3         -2.2238  -10.4730   -0.8200 O.2       1 <0>        -0.5381
     19 N3         -3.6934   -8.8118   -0.7375 N.am      1 <0>        -0.5980
     20 H1         -4.4303   -9.4376   -0.8162 H         1 <0>         0.4225
     21 C14        -3.9511   -7.4948   -0.6330 C.2       1 <0>         0.2166
     22 S1          3.8887    2.3202   -0.0484 S.o2      1 <0>         2.6365
     23 O4          3.9280    3.0689    1.1587 O.2       1 <0>        -1.0106
     24 O5          4.9089    1.3981   -0.4064 O.2       1 <0>        -1.0096
     25 N4          3.7889    3.4186   -1.2837 N.2       1 <0>        -1.0315
     26 C15         4.8481    4.2764   -1.5356 C.2       1 <0>         0.4013
     27 N5          6.0021    4.3574   -0.9081 N.2       1 <0>        -0.6657
     28 C16         6.9170    5.2379   -1.2739 C.2       1 <0>         0.1003
     29 C17         6.6116    6.0461   -2.3173 C.2       1 <0>        -0.3457
     30 S2          4.9738    5.4625   -2.7230 S.3       1 <0>         0.0100
     31 H2          0.9775   -1.3547   -1.3524 H         1 <0>         0.1382
     32 H3          3.0889   -0.0902   -1.3705 H         1 <0>         0.1421
     33 H4          1.4094    2.7707    1.3107 H         1 <0>         0.1432
     34 H5         -0.7050    1.5114    1.3385 H         1 <0>         0.1319
     35 H6         -2.0437   -0.2526    0.0982 H         1 <0>         0.4157
     36 H7         -3.0811   -2.6439    0.6849 H         1 <0>         0.1066
     37 H8         -3.0230   -2.4991   -1.0882 H         1 <0>         0.1084
     38 H9         -1.2743   -4.5747   -0.3069 H         1 <0>         0.4132
     39 H10        -0.7594   -6.3540   -0.4252 H         1 <0>         0.1421
     40 H11        -0.3320   -8.7614   -0.6080 H         1 <0>         0.1576
     41 H12        -4.9733   -7.1464   -0.6377 H         1 <0>         0.1835
     42 H13         7.8659    5.3103   -0.7634 H         1 <0>         0.1458
     43 H14         7.1988    6.8262   -2.7789 H         1 <0>         0.1706
@<TRIPOS>BOND
     1    1    6 ar
     2    1    2 ar
     3    1   31 1
     4    2    3 ar
     5    2   32 1
     6    3    4 ar
     7    3   22 1
     8    4    5 ar
     9    4   33 1
    10    5    6 ar
    11    5   34 1
    12    6    7 1
    13    7    8 am
    14    7   35 1
    15    8    9 2
    16    8   10 1
    17   10   11 1
    18   10   36 1
    19   10   37 1
    20   11   12 am
    21   11   38 1
    22   12   13 2
    23   12   14 1
    24   14   21 2
    25   14   15 1
    26   15   16 2
    27   15   39 1
    28   16   17 1
    29   16   40 1
    30   17   18 2
    31   17   19 am
    32   19   20 1
    33   19   21 1
    34   21   41 1
    35   22   23 2
    36   22   24 2
    37   22   25 1
    38   25   26 1
    39   26   30 1
    40   26   27 2
    41   27   28 1
    42   28   29 2
    43   28   42 1
    44   29   30 1
    45   29   43 1
@<TRIPOS>MOLECULE
ZINC60341680
   46    47     0     0     0
SMALL
USER_CHARGES

@<TRIPOS>ATOM
      1 C1          0.2336    0.7135   -0.7108 C.3       1 <0>         0.0873
      2 N1          0.0923   -0.7007   -0.3554 N.pl3     1 <0>        -0.7334
      3 C2          0.5534   -1.1605    0.8842 C.ar      1 <0>         0.2792
      4 C3          1.1388   -0.2779    1.7792 C.ar      1 <0>        -0.2132
      5 C4          1.5930   -0.7340    3.0029 C.ar      1 <0>         0.0309
      6 C5          1.4654   -2.0692    3.3382 C.ar      1 <0>        -0.7292
      7 C6          0.8829   -2.9562    2.4518 C.ar      1 <0>         0.0475
      8 C7          0.4198   -2.5064    1.2246 C.ar      1 <0>         0.0547
      9 N2         -0.1752   -3.4018    0.3276 N.pl3     1 <0>        -1.0588
     10 S1         -1.6244   -4.1097    0.7031 S.o2      1 <0>         2.6937
     11 O1         -1.9440   -4.9778   -0.3755 O.2       1 <0>        -0.9557
     12 O2         -1.5172   -4.5681    2.0439 O.2       1 <0>        -0.9426
     13 C8         -2.8421   -2.8361    0.7022 C.ar      1 <0>        -0.7191
     14 C9         -3.8302   -2.8308   -0.2560 C.ar      1 <0>         0.0436
     15 C10        -4.7963   -1.8191   -0.2557 C.ar      1 <0>        -0.1839
     16 C11        -4.7533   -0.8168    0.7197 C.ar      1 <0>         0.0091
     17 C12        -3.7617   -0.8302    1.6737 C.ar      1 <0>        -0.2414
     18 C13        -2.8066   -1.8412    1.6729 C.ar      1 <0>         0.2160
     19 O3         -1.8344   -1.8538    2.6190 O.3       1 <0>        -0.3045
     20 C14        -1.9180   -0.8661    3.6483 C.3       1 <0>         0.0235
     21 C15        -5.8550   -1.8088   -1.2789 C.2       1 <0>         0.5225
     22 O4         -5.8907   -2.6859   -2.1310 O.co2     1 <0>        -0.6814
     23 O5         -6.6990   -0.9232   -1.2769 O.co2     1 <0>        -0.6869
     24 S2          2.0474   -2.6423    4.8995 S.o2      1 <0>         2.6986
     25 O6          2.2014   -4.0502    4.7836 O.2       1 <0>        -0.9586
     26 O7          3.1190   -1.7868    5.2724 O.2       1 <0>        -0.9682
     27 N3          0.8343   -2.3877    5.9977 N.pl3     1 <0>        -1.1230
     28 C16        -0.4240   -3.1292    5.8842 C.3       1 <0>         0.0765
     29 H1          1.2890    0.9859   -0.7049 H         1 <0>         0.0581
     30 H2         -0.1794    0.8812   -1.7056 H         1 <0>         0.0791
     31 H3         -0.3037    1.3256    0.0135 H         1 <0>         0.0577
     32 H4         -0.3207   -1.3185   -0.9788 H         1 <0>         0.4066
     33 H5          1.2404    0.7657    1.5203 H         1 <0>         0.1325
     34 H6          2.0491   -0.0453    3.6986 H         1 <0>         0.1372
     35 H7          0.7851   -3.9986    2.7168 H         1 <0>         0.1519
     36 H8          0.2614   -3.6075   -0.5138 H         1 <0>         0.4197
     37 H9         -3.8593   -3.6063   -1.0071 H         1 <0>         0.1527
     38 H10        -5.4969   -0.0336    0.7235 H         1 <0>         0.1364
     39 H11        -3.7276   -0.0570    2.4269 H         1 <0>         0.1291
     40 H12        -1.0386   -0.9336    4.2888 H         1 <0>         0.1006
     41 H13        -1.9641    0.1253    3.1977 H         1 <0>         0.0573
     42 H14        -2.8150   -1.0367    4.2436 H         1 <0>         0.0596
     43 H15         0.9570   -1.7476    6.7161 H         1 <0>         0.4158
     44 H16        -1.1284   -2.7663    6.6327 H         1 <0>         0.0793
     45 H17        -0.8438   -2.9824    4.8890 H         1 <0>         0.0750
     46 H18        -0.2362   -4.1906    6.0464 H         1 <0>         0.0683
@<TRIPOS>BOND
     1    1    2 1
     2    1   29 1
     3    1   30 1
     4    1   31 1
     5    2    3 1
     6    2   32 1
     7    3    8 ar
     8    3    4 ar
     9    4    5 ar
    10    4   33 1
    11    5    6 ar
    12    5   34 1
    13    6    7 ar
    14    6   24 1
    15    7    8 ar
    16    7   35 1
    17    8    9 1
    18    9   10 1
    19    9   36 1
    20   10   11 2
    21   10   12 2
    22   10   13 1
    23   13   18 ar
    24   13   14 ar
    25   14   15 ar
    26   14   37 1
    27   15   16 ar
    28   15   21 1
    29   16   17 ar
    30   16   38 1
    31   17   18 ar
    32   17   39 1
    33   18   19 1
    34   19   20 1
    35   20   40 1
    36   20   41 1
    37   20   42 1
    38   21   22 2
    39   21   23 1
    40   24   25 2
    41   24   26 2
    42   24   27 1
    43   27   28 1
    44   27   43 1
    45   28   44 1
    46   28   45 1
    47   28   46 1
@<TRIPOS>MOLECULE
ZINC65743333
   52    55     0     0     0
SMALL
USER_CHARGES

@<TRIPOS>ATOM
      1 C1         -0.6435    1.4234    0.1131 C.3       1 <0>        -0.0863
      2 C2         -0.2980   -0.0422    0.0514 C.2       1 <0>        -0.2825
      3 C3         -0.4055   -0.7491   -1.1695 C.2       1 <0>         0.4331
      4 O1         -0.7764   -0.1968   -2.1919 O.2       1 <0>        -0.4684
      5 C4         -0.0501   -2.1825   -1.1565 C.ar      1 <0>        -0.2360
      6 C5         -0.1253   -2.9579   -2.3126 C.ar      1 <0>         0.0028
      7 C6          0.2142   -4.2950   -2.2679 C.ar      1 <0>        -0.1612
      8 C7          0.6290   -4.8743   -1.0830 C.ar      1 <0>        -0.0008
      9 C8          0.7107   -4.1162    0.0851 C.ar      1 <0>        -0.1423
     10 C9          0.3693   -2.7551    0.0533 C.ar      1 <0>         0.2039
     11 O2          0.4401   -1.9987    1.1650 O.3       1 <0>        -0.1857
     12 C10         0.1249   -0.6942    1.1675 C.2       1 <0>         0.2056
     13 C11         0.2369    0.0610    2.4315 C.ar      1 <0>        -0.0698
     14 C12        -0.3336   -0.4427    3.6026 C.ar      1 <0>        -0.0694
     15 C13        -0.2252    0.2680    4.7797 C.ar      1 <0>        -0.1220
     16 C14         0.4465    1.4776    4.8020 C.ar      1 <0>        -0.0943
     17 C15         1.0142    1.9826    3.6455 C.ar      1 <0>        -0.1241
     18 C16         0.9188    1.2795    2.4626 C.ar      1 <0>        -0.0766
     19 C17         1.1530   -4.7406    1.3453 C.2       1 <0>         0.5061
     20 O3          1.2228   -4.0767    2.3605 O.2       1 <0>        -0.4558
     21 O4          1.4797   -6.0476    1.3711 O.3       1 <0>        -0.3728
     22 C18         1.8998   -6.5866    2.6262 C.3       1 <0>         0.2137
     23 H1          1.1366   -6.3912    3.3794 H         1 <0>         0.1094
     24 C19         2.1071   -8.0972    2.4893 C.3       1 <0>         0.0695
     25 H2          1.1832   -8.5620    2.1452 H         1 <0>         0.0671
     26 C20         3.2224   -8.3617    1.4732 C.3       1 <0>         0.1213
     27 H3          2.9206   -7.9876    0.4949 H         1 <0>         0.0837
     28 C21         4.4943   -7.6392    1.9279 C.3       1 <0>         0.1068
     29 H4          5.2775   -7.7764    1.1824 H         1 <0>         0.0684
     30 C22         4.1947   -6.1462    2.0865 C.3       1 <0>        -0.0089
     31 H5          3.9043   -5.7294    1.1221 H         1 <0>         0.0567
     32 O5          3.1279   -5.9722    3.0216 O.3       1 <0>        -0.3152
     33 C23         5.4255   -5.4374    2.5903 C.2       1 <0>         0.5064
     34 O6          6.4264   -5.3858    1.8960 O.co2     1 <0>        -0.6870
     35 O7          5.4203   -4.9156    3.6922 O.co2     1 <0>        -0.6592
     36 O8          4.9270   -8.1762    3.1795 O.3       1 <0>        -0.5292
     37 O9          3.4718   -9.7664    1.3918 O.3       1 <0>        -0.5392
     38 O10         2.4744   -8.6456    3.7568 O.3       1 <0>        -0.5013
     39 H6          0.2630    2.0159   -0.0108 H         1 <0>         0.0701
     40 H7         -1.3470    1.6647   -0.6837 H         1 <0>         0.0748
     41 H8         -1.0963    1.6496    1.0785 H         1 <0>         0.0709
     42 H9         -0.4491   -2.5130   -3.2420 H         1 <0>         0.1494
     43 H10         0.1550   -4.8933   -3.1651 H         1 <0>         0.1469
     44 H11         0.8914   -5.9217   -1.0615 H         1 <0>         0.1559
     45 H12        -0.8587   -1.3863    3.5864 H         1 <0>         0.1305
     46 H13        -0.6658   -0.1203    5.6860 H         1 <0>         0.1309
     47 H14         0.5278    2.0303    5.7263 H         1 <0>         0.1283
     48 H15         1.5370    2.9273    3.6700 H         1 <0>         0.1319
     49 H16         1.3661    1.6726    1.5617 H         1 <0>         0.1333
     50 H17         5.7294   -7.7642    3.5279 H         1 <0>         0.3757
     51 H18         2.7051  -10.2865    1.1148 H         1 <0>         0.3677
     52 H19         1.8140   -8.5104    4.4501 H         1 <0>         0.3670
@<TRIPOS>BOND
     1    1    2 1
     2    1   39 1
     3    1   40 1
     4    1   41 1
     5    2   12 2
     6    2    3 1
     7    3    4 2
     8    3    5 1
     9    5   10 ar
    10    5    6 ar
    11    6    7 ar
    12    6   42 1
    13    7    8 ar
    14    7   43 1
    15    8    9 ar
    16    8   44 1
    17    9   10 ar
    18    9   19 1
    19   10   11 1
    20   11   12 1
    21   12   13 1
    22   13   18 ar
    23   13   14 ar
    24   14   15 ar
    25   14   45 1
    26   15   16 ar
    27   15   46 1
    28   16   17 ar
    29   16   47 1
    30   17   18 ar
    31   17   48 1
    32   18   49 1
    33   19   20 2
    34   19   21 1
    35   21   22 1
    36   22   23 1
    37   22   32 1
    38   22   24 1
    39   24   25 1
    40   24   26 1
    41   24   38 1
    42   26   27 1
    43   26   28 1
    44   26   37 1
    45   28   29 1
    46   28   30 1
    47   28   36 1
    48   30   31 1
    49   30   32 1
    50   30   33 1
    51   33   34 2
    52   33   35 1
    53   36   50 1
    54   37   51 1
    55   38   52 1
@<TRIPOS>MOLECULE
ZINC13242954
   62    63     0     0     0
SMALL
USER_CHARGES
(2S)-2-[[2-[methyl-[2-[(2-methylsulfanylphenyl)amino]-2-oxo-ethyl]amino]-2-oxo-ethyl]carbamoylamino]-4-morpholino-4-oxo-butanoic acid
@<TRIPOS>ATOM
      1 C1         -6.1920   -4.4169    6.9857 C.3       1 <0>         0.0760
      2 N1         -5.9506   -2.9793    7.1307 N.am      1 <0>        -0.6006
      3 C2         -6.9572   -2.1282    7.7700 C.3       1 <0>         0.1010
      4 C3         -7.9106   -1.6069    6.7259 C.2       1 <0>         0.4984
      5 O1         -7.7637   -1.9159    5.5621 O.2       1 <0>        -0.5032
      6 N2         -8.9265   -0.7974    7.0851 N.am      1 <0>        -0.6707
      7 C4         -9.7565   -0.2372    6.1046 C.ar      1 <0>         0.1691
      8 C5        -10.0620   -0.9558    4.9589 C.ar      1 <0>        -0.1039
      9 C6        -10.8853   -0.4034    3.9953 C.ar      1 <0>        -0.1042
     10 C7        -11.3980    0.8697    4.1648 C.ar      1 <0>        -0.1166
     11 C8        -11.0945    1.5959    5.3008 C.ar      1 <0>        -0.1168
     12 C9        -10.2732    1.0473    6.2759 C.ar      1 <0>        -0.1128
     13 S1         -9.8838    1.9707    7.7252 S.3       1 <0>        -0.1211
     14 C10       -10.7658    3.5392    7.4965 C.3       1 <0>        -0.1399
     15 C11        -4.8024   -2.4395    6.6759 C.2       1 <0>         0.5211
     16 O2         -4.6025   -1.2494    6.7959 O.2       1 <0>        -0.5302
     17 C12        -3.7669   -3.3150    6.0183 C.3       1 <0>         0.1303
     18 N3         -2.6206   -2.4967    5.6150 N.am      1 <0>        -0.7434
     19 C13        -1.5655   -3.0700    5.0028 C.2       1 <0>         0.7230
     20 O3         -1.5651   -4.2662    4.7853 O.2       1 <0>        -0.5939
     21 N4         -0.5109   -2.3172    4.6318 N.am      1 <0>        -0.7050
     22 C14         0.6359   -2.9404    3.9664 C.3       1 <0>         0.1391
     23 H1          0.2878   -3.7493    3.3241 H         1 <0>         0.0963
     24 C15         1.3645   -1.8946    3.1200 C.3       1 <0>        -0.1299
     25 C16         0.4608   -1.4314    2.0065 C.2       1 <0>         0.5159
     26 O4         -0.6560   -1.8922    1.9003 O.2       1 <0>        -0.5220
     27 N5          0.8938   -0.5049    1.1286 N.am      1 <0>        -0.6247
     28 C17         0.0296   -0.0371    0.0332 C.3       1 <0>         0.0773
     29 C18         0.0187    1.4958    0.0470 C.3       1 <0>         0.0490
     30 O5          1.3652    1.9761    0.0428 O.3       1 <0>        -0.3822
     31 C19         2.1255    1.5967    1.1924 C.3       1 <0>         0.0471
     32 C20         2.2444    0.0690    1.2373 C.3       1 <0>         0.0706
     33 C21         1.5792   -3.4930    5.0037 C.2       1 <0>         0.4588
     34 O6          1.3201   -3.3781    6.1782 O.co2     1 <0>        -0.6224
     35 H2         -5.8119   -4.9395    7.8636 H         1 <0>         0.0663
     36 H3         -7.2627   -4.5978    6.8905 H         1 <0>         0.0729
     37 H4         -5.6811   -4.7832    6.0953 H         1 <0>         0.0825
     38 H5         -7.5093   -2.7102    8.5080 H         1 <0>         0.1146
     39 H6         -6.4644   -1.2902    8.2629 H         1 <0>         0.1208
     40 H7         -9.0832   -0.6025    8.0223 H         1 <0>         0.4120
     41 H8         -9.6601   -1.9487    4.8211 H         1 <0>         0.1449
     42 H9        -11.1254   -0.9664    3.1054 H         1 <0>         0.1292
     43 H10       -12.0373    1.2980    3.4070 H         1 <0>         0.1265
     44 H11       -11.4961    2.5901    5.4296 H         1 <0>         0.1259
     45 H12       -10.5838    4.1868    8.3541 H         1 <0>         0.1103
     46 H13       -10.4089    4.0279    6.5899 H         1 <0>         0.0851
     47 H14       -11.8348    3.3453    7.4079 H         1 <0>         0.0841
     48 H15        -4.1999   -3.7922    5.1391 H         1 <0>         0.0960
     49 H16        -3.4378   -4.0797    6.7218 H         1 <0>         0.0971
     50 H17        -2.6209   -1.5424    5.7885 H         1 <0>         0.4013
     51 H18        -0.5112   -1.3629    4.8053 H         1 <0>         0.3846
     52 H19         2.2670   -2.3349    2.6961 H         1 <0>         0.1184
     53 H20         1.6346   -1.0444    3.7462 H         1 <0>         0.0916
     54 H21        -0.9832   -0.4127    0.1787 H         1 <0>         0.1000
     55 H22         0.4203   -0.3929   -0.9201 H         1 <0>         0.0719
     56 H23        -0.5020    1.8641   -0.8369 H         1 <0>         0.1035
     57 H24        -0.4908    1.8482    0.9438 H         1 <0>         0.0552
     58 H25         1.6237    1.9495    2.0935 H         1 <0>         0.0567
     59 H26         3.1206    2.0377    1.1335 H         1 <0>         0.1067
     60 H27         2.6982   -0.2363    2.1802 H         1 <0>         0.1013
     61 H28         2.8580   -0.2761    0.4052 H         1 <0>         0.0782
     62 O7          2.7072   -4.1128    4.6227 O.co2     1 <0>        -0.7673
@<TRIPOS>BOND
     1    1    2 1
     2    1   35 1
     3    1   36 1
     4    1   37 1
     5    2    3 1
     6    2   15 am
     7    3    4 1
     8    3   38 1
     9    3   39 1
    10    4    5 2
    11    4    6 am
    12    6    7 1
    13    6   40 1
    14    7   12 ar
    15    7    8 ar
    16    8    9 ar
    17    8   41 1
    18    9   10 ar
    19    9   42 1
    20   10   11 ar
    21   10   43 1
    22   11   12 ar
    23   11   44 1
    24   12   13 1
    25   13   14 1
    26   14   45 1
    27   14   46 1
    28   14   47 1
    29   15   16 2
    30   15   17 1
    31   17   18 1
    32   17   48 1
    33   17   49 1
    34   18   19 am
    35   18   50 1
    36   19   20 2
    37   19   21 am
    38   21   22 1
    39   21   51 1
    40   22   23 1
    41   22   24 1
    42   22   33 1
    43   24   25 1
    44   24   52 1
    45   24   53 1
    46   25   26 2
    47   25   27 am
    48   27   32 1
    49   27   28 1
    50   28   29 1
    51   28   54 1
    52   28   55 1
    53   29   30 1
    54   29   56 1
    55   29   57 1
    56   30   31 1
    57   31   32 1
    58   31   58 1
    59   31   59 1
    60   32   60 1
    61   32   61 1
    62   33   34 2
    63   33   62 1
@<TRIPOS>MOLECULE
ZINC22061038
   51    52     0     0     0
SMALL
USER_CHARGES
(2R,3R,4R,5R,6S)-3,4,5-trihydroxy-6-(4-hydroxy-3,5-diisopropyl-phenoxy)tetrahydropyran-2-carboxylic acid
@<TRIPOS>ATOM
      1 C1          1.0813   -6.6692    3.3616 C.3       1 <0>        -0.1451
      2 C2          2.4762   -6.0541    3.2329 C.3       1 <0>        -0.0461
      3 C3          3.1300   -6.5392    1.9375 C.3       1 <0>        -0.1422
      4 C4          2.3622   -4.5517    3.2060 C.ar      1 <0>        -0.0847
      5 C5          1.6313   -3.9322    2.2110 C.ar      1 <0>        -0.1112
      6 C6          1.5267   -2.5494    2.1860 C.ar      1 <0>         0.0987
      7 C7          2.1604   -1.7883    3.1570 C.ar      1 <0>        -0.1410
      8 C8          2.8870   -2.4080    4.1550 C.ar      1 <0>        -0.1317
      9 C9          2.9916   -3.7908    4.1800 C.ar      1 <0>         0.1238
     10 O1          3.7116   -4.4006    5.1593 O.3       1 <0>        -0.5094
     11 C10         3.5713   -1.5814    5.2130 C.3       1 <0>        -0.0462
     12 C11         4.5750   -0.6352    4.5511 C.3       1 <0>        -0.1436
     13 C12         2.5270   -0.7642    5.9764 C.3       1 <0>        -0.1480
     14 O2          0.8075   -1.9396    1.2062 O.3       1 <0>        -0.3337
     15 C13         0.7423   -0.5125    1.2419 C.3       1 <0>         0.2488
     16 H1          1.7729   -0.1355    1.3176 H         1 <0>         0.1135
     17 C14         0.0021   -0.0041    0.0020 C.3       1 <0>         0.1265
     18 H2          0.5249   -0.2882   -0.9232 H         1 <0>         0.0746
     19 C15        -1.4344   -0.5356    0.0208 C.3       1 <0>         0.0994
     20 H3         -1.4625   -1.6284   -0.1017 H         1 <0>         0.0683
     21 C16        -2.1122   -0.0977    1.3228 C.3       1 <0>         0.0944
     22 H4         -2.2457    0.9935    1.3604 H         1 <0>         0.0611
     23 C17        -1.2903   -0.6025    2.5117 C.3       1 <0>         0.0225
     24 H5         -1.2041   -1.6991    2.5116 H         1 <0>         0.0685
     25 O3          0.0428   -0.0966    2.4166 O.3       1 <0>        -0.3481
     26 C18        -1.9184   -0.1256    3.7958 C.2       1 <0>         0.4776
     27 O4         -1.3236    0.6479    4.5085 O.co2     1 <0>        -0.6066
     28 O5         -3.1386   -0.5602    4.1480 O.co2     1 <0>        -0.7517
     29 O6         -3.4292   -0.6487    1.3844 O.3       1 <0>        -0.6093
     30 O7         -2.1545   -0.0065   -1.0944 O.3       1 <0>        -0.6020
     31 O8         -0.0173    1.4248    0.0099 O.3       1 <0>        -0.5760
     32 H6          0.6113   -6.3204    4.2930 H         1 <0>         0.0565
     33 H7          1.1646   -7.7659    3.3812 H         1 <0>         0.0549
     34 H8          0.4652   -6.3636    2.5031 H         1 <0>         0.0571
     35 H9          3.0941   -6.3447    4.0953 H         1 <0>         0.0855
     36 H10         4.1329   -6.0969    1.8450 H         1 <0>         0.0533
     37 H11         2.5139   -6.2336    1.0790 H         1 <0>         0.0563
     38 H12         3.2133   -7.6359    1.9572 H         1 <0>         0.0547
     39 H13         1.1415   -4.5246    1.4523 H         1 <0>         0.1313
     40 H14         2.0827   -0.7114    3.1349 H         1 <0>         0.1393
     41 H15         4.2108   -3.7972    5.9318 H         1 <0>         0.4187
     42 H16         4.0950   -2.2582    5.9041 H         1 <0>         0.0654
     43 H17         5.0745   -0.0319    5.3235 H         1 <0>         0.0587
     44 H18         4.0464    0.0292    3.8517 H         1 <0>         0.0613
     45 H19         5.3258   -1.2227    4.0023 H         1 <0>         0.0534
     46 H20         3.0265   -0.1608    6.7487 H         1 <0>         0.0559
     47 H21         1.8054   -1.4445    6.4523 H         1 <0>         0.0569
     48 H22         1.9984   -0.0998    5.2770 H         1 <0>         0.0727
     49 H23        -4.0720   -0.4416    2.2527 H         1 <0>         0.4304
     50 H24        -3.2092   -0.2788   -1.2473 H         1 <0>         0.4176
     51 H25        -0.5089    1.9727   -0.8075 H         1 <0>         0.4194
@<TRIPOS>BOND
     1    1    2 1
     2    1   32 1
     3    1   33 1
     4    1   34 1
     5    2    3 1
     6    2    4 1
     7    2   35 1
     8    3   36 1
     9    3   37 1
    10    3   38 1
    11    4    9 ar
    12    4    5 ar
    13    5    6 ar
    14    5   39 1
    15    6    7 ar
    16    6   14 1
    17    7    8 ar
    18    7   40 1
    19    8    9 ar
    20    8   11 1
    21    9   10 1
    22   10   41 1
    23   11   12 1
    24   11   13 1
    25   11   42 1
    26   12   43 1
    27   12   44 1
    28   12   45 1
    29   13   46 1
    30   13   47 1
    31   13   48 1
    32   14   15 1
    33   15   16 1
    34   15   25 1
    35   15   17 1
    36   17   18 1
    37   17   19 1
    38   17   31 1
    39   19   20 1
    40   19   21 1
    41   19   30 1
    42   21   22 1
    43   21   23 1
    44   21   29 1
    45   23   24 1
    46   23   25 1
    47   23   26 1
    48   26   27 2
    49   26   28 1
    50   29   49 1
    51   30   50 1
    52   31   51 1
@<TRIPOS>MOLECULE
ZINC38794089
   47    50     0     0     0
SMALL
USER_CHARGES

@<TRIPOS>ATOM
      1 C1         -0.0167    1.3780    0.0096 C.ar      1 <0>        -0.1282
      2 C2          1.1706    2.0866    0.0021 C.ar      1 <0>        -0.0773
      3 C3          2.3773    1.4137   -0.0131 C.ar      1 <0>        -0.1536
      4 C4          2.3974    0.0291   -0.0207 C.ar      1 <0>         0.1186
      5 C5          1.2080   -0.6793   -0.0132 C.ar      1 <0>        -0.1275
      6 C6          0.0021   -0.0041    0.0020 C.ar      1 <0>        -0.0706
      7 C7          1.2281   -2.1862   -0.0220 C.3       1 <0>        -0.5693
      8 S1          1.2528   -2.8005    1.6846 S.o2      1 <0>         2.3924
      9 O1          2.4785   -2.4070    2.2863 O.2       1 <0>        -0.8992
     10 O2          0.0289   -2.4398    2.3100 O.2       1 <0>        -0.9019
     11 C8          1.2748   -4.6007    1.4622 C.3       1 <0>        -0.2698
     12 H1          1.2783   -5.0949    2.4337 H         1 <0>         0.1644
     13 N1          2.4732   -4.9992    0.6889 N.3       1 <0>        -0.4717
     14 N2          1.9837   -6.0860   -0.1764 N.3       1 <0>        -0.4727
     15 C9          0.6068   -5.6330   -0.5055 C.3       1 <0>         0.1772
     16 H2          0.6294   -4.9092   -1.3201 H         1 <0>         0.1274
     17 O3          0.1263   -5.0144    0.7070 O.3       1 <0>        -0.3656
     18 C10        -0.2727   -6.8278   -0.8793 C.3       1 <0>         0.1138
     19 N3         -0.3342   -7.7607    0.2486 N.pl3     1 <0>        -1.1219
     20 S2         -1.4910   -8.9453    0.2812 S.o2      1 <0>         2.7083
     21 O4         -1.2748   -9.6914    1.4710 O.2       1 <0>        -0.9629
     22 O5         -2.7299   -8.3111   -0.0058 O.2       1 <0>        -0.9604
     23 C11        -1.1594  -10.0345   -1.0635 C.ar      1 <0>        -0.7257
     24 C12        -1.7284   -9.7898   -2.3041 C.ar      1 <0>        -0.0207
     25 C13        -1.4776  -10.6327   -3.3644 C.ar      1 <0>        -0.1412
     26 C14        -0.6456  -11.7389   -3.1873 C.ar      1 <0>         0.1529
     27 C15        -0.0719  -11.9828   -1.9307 C.ar      1 <0>        -0.0605
     28 C16        -0.3306  -11.1219   -0.8762 C.ar      1 <0>         0.0305
     29 O6          0.6719  -13.1048   -2.0629 O.3       1 <0>        -0.2708
     30 C17         0.5646  -13.5321   -3.3324 C.2       1 <0>         0.5252
     31 O7          1.1728  -14.6305   -3.8335 O.3       1 <0>        -0.6273
     32 N4         -0.2135  -12.7325   -4.0117 N.2       1 <0>        -0.6055
     33 F1          3.5766   -0.6299   -0.0360 F         1 <0>        -0.1261
     34 H3         -0.9594    1.9048    0.0260 H         1 <0>         0.1386
     35 H4          1.1547    3.1665    0.0077 H         1 <0>         0.1393
     36 H5          3.3046    1.9675   -0.0193 H         1 <0>         0.1435
     37 H6         -0.9259   -0.5565    0.0083 H         1 <0>         0.1436
     38 H7          0.3381   -2.5585   -0.5293 H         1 <0>         0.1557
     39 H8          2.1178   -2.5346   -0.5465 H         1 <0>         0.1432
     40 H9          2.8216   -4.2282    0.1391 H         1 <0>         0.3607
     41 H10         1.9664   -6.9640    0.3206 H         1 <0>         0.3749
     42 H11        -1.2776   -6.4789   -1.1174 H         1 <0>         0.1069
     43 H12         0.1512   -7.3338   -1.7466 H         1 <0>         0.1044
     44 H13         0.3026   -7.6846    0.9762 H         1 <0>         0.4120
     45 H14        -2.3724   -8.9335   -2.4397 H         1 <0>         0.1343
     46 H15        -1.9233  -10.4383   -4.3287 H         1 <0>         0.1291
     47 H16         0.1123  -11.3039    0.0919 H         1 <0>         0.1334
@<TRIPOS>BOND
     1    1    6 ar
     2    1    2 ar
     3    1   34 1
     4    2    3 ar
     5    2   35 1
     6    3    4 ar
     7    3   36 1
     8    4    5 ar
     9    4   33 1
    10    5    6 ar
    11    5    7 1
    12    6   37 1
    13    7    8 1
    14    7   38 1
    15    7   39 1
    16    8    9 2
    17    8   10 2
    18    8   11 1
    19   11   12 1
    20   11   17 1
    21   11   13 1
    22   13   14 1
    23   13   40 1
    24   14   15 1
    25   14   41 1
    26   15   16 1
    27   15   17 1
    28   15   18 1
    29   18   19 1
    30   18   42 1
    31   18   43 1
    32   19   20 1
    33   19   44 1
    34   20   21 2
    35   20   22 2
    36   20   23 1
    37   23   28 ar
    38   23   24 ar
    39   24   25 ar
    40   24   45 1
    41   25   26 ar
    42   25   46 1
    43   26   32 1
    44   26   27 ar
    45   27   28 ar
    46   27   29 1
    47   28   47 1
    48   29   30 1
    49   30   31 1
    50   30   32 2
@<TRIPOS>MOLECULE
ZINC60108026
   53    56     0     0     0
SMALL
USER_CHARGES

@<TRIPOS>ATOM
      1 C1         -0.0569    1.3595   -0.0093 C.3       1 <0>         0.0273
      2 O1         -0.0253   -0.0692   -0.0147 O.3       1 <0>        -0.3192
      3 C2          0.6021   -0.6767    1.0274 C.ar      1 <0>         0.1007
      4 C3          1.1698    0.0881    2.0361 C.ar      1 <0>        -0.1789
      5 C4          1.8071   -0.5283    3.0947 C.ar      1 <0>        -0.1161
      6 C5          1.8797   -1.9137    3.1496 C.ar      1 <0>         0.1338
      7 C6          1.3113   -2.6786    2.1397 C.ar      1 <0>        -0.1129
      8 C7          0.6693   -2.0611    1.0845 C.ar      1 <0>        -0.1236
      9 N1          2.5266   -2.5397    4.2232 N.am      1 <0>        -0.5511
     10 C8          2.5680   -3.9918    4.4322 C.3       1 <0>         0.1102
     11 C9          3.7148   -4.2306    5.4393 C.3       1 <0>        -0.1230
     12 H1          3.4692   -5.0414    6.1251 H         1 <0>         0.1344
     13 C10         3.7698   -2.8754    6.1818 C.3       1 <0>        -0.1446
     14 C11         3.1938   -1.8878    5.1910 C.2       1 <0>         0.5170
     15 O2          3.3143   -0.6829    5.2613 O.2       1 <0>        -0.5084
     16 C12         5.0120   -4.5075    4.7239 C.2       1 <0>         0.5194
     17 O3          5.0454   -4.5190    3.5116 O.2       1 <0>        -0.5272
     18 N2          6.1349   -4.7424    5.4312 N.am      1 <0>        -0.7106
     19 C13         7.3959   -5.0115    4.7357 C.3       1 <0>         0.1021
     20 C14         8.4891   -5.2390    5.7477 C.2       1 <0>         0.5073
     21 O4          8.2395   -5.1819    6.9332 O.2       1 <0>        -0.5409
     22 N3          9.7442   -5.5059    5.3354 N.am      1 <0>        -0.6328
     23 C15        10.7320   -5.8277    6.2683 C.ar      1 <0>         0.1750
     24 C16        10.4115   -6.5559    7.4018 C.ar      1 <0>        -0.1132
     25 C17        11.3864   -6.8802    8.3330 C.ar      1 <0>        -0.1129
     26 C18        12.6947   -6.4854    8.1513 C.ar      1 <0>        -0.0825
     27 C19        13.0435   -5.7515    7.0189 C.ar      1 <0>        -0.1092
     28 C20        12.0571   -5.4218    6.0630 C.ar      1 <0>        -0.0921
     29 C21        12.4554   -4.6545    4.8803 C.2       1 <0>         0.3982
     30 O5         11.5303   -4.3172    3.9461 O.3       1 <0>        -0.7059
     31 N4         13.6999   -4.2954    4.7259 N.2       1 <0>        -0.4070
     32 N5         14.6939   -4.6127    5.6521 N.am      1 <0>        -0.5137
     33 H2         15.6037   -4.3199    5.4866 H         1 <0>         0.4178
     34 C22        14.4220   -5.3058    6.7771 C.2       1 <0>         0.5091
     35 O6         15.3074   -5.5705    7.5713 O.2       1 <0>        -0.5824
     36 H3          0.9625    1.7454   -0.0158 H         1 <0>         0.0555
     37 H4         -0.5855    1.7145   -0.8939 H         1 <0>         0.0988
     38 H5         -0.5717    1.7081    0.8860 H         1 <0>         0.0543
     39 H6          1.1135    1.1657    1.9931 H         1 <0>         0.1313
     40 H7          2.2493    0.0673    3.8797 H         1 <0>         0.1575
     41 H8          1.3678   -3.7563    2.1815 H         1 <0>         0.1342
     42 H9          0.2234   -2.6560    0.3012 H         1 <0>         0.1351
     43 H10         1.6225   -4.3403    4.8477 H         1 <0>         0.0923
     44 H11         2.7789   -4.5023    3.4925 H         1 <0>         0.1063
     45 H12         3.1634   -2.9113    7.0868 H         1 <0>         0.1247
     46 H13         4.8002   -2.6135    6.4220 H         1 <0>         0.1143
     47 H14         6.1082   -4.7332    6.4008 H         1 <0>         0.4132
     48 H15         7.2855   -5.9001    4.1141 H         1 <0>         0.1048
     49 H16         7.6537   -4.1586    4.1078 H         1 <0>         0.1073
     50 H17         9.9613   -5.4744    4.3905 H         1 <0>         0.4310
     51 H18         9.3920   -6.8741    7.5623 H         1 <0>         0.1337
     52 H19        11.1175   -7.4485    9.2112 H         1 <0>         0.1279
     53 H20        13.4458   -6.7432    8.8833 H         1 <0>         0.1338
@<TRIPOS>BOND
     1    1    2 1
     2    1   36 1
     3    1   37 1
     4    1   38 1
     5    2    3 1
     6    3    8 ar
     7    3    4 ar
     8    4    5 ar
     9    4   39 1
    10    5    6 ar
    11    5   40 1
    12    6    7 ar
    13    6    9 1
    14    7    8 ar
    15    7   41 1
    16    8   42 1
    17    9   14 am
    18    9   10 1
    19   10   11 1
    20   10   43 1
    21   10   44 1
    22   11   12 1
    23   11   13 1
    24   11   16 1
    25   13   14 1
    26   13   45 1
    27   13   46 1
    28   14   15 2
    29   16   17 2
    30   16   18 am
    31   18   19 1
    32   18   47 1
    33   19   20 1
    34   19   48 1
    35   19   49 1
    36   20   21 2
    37   20   22 am
    38   22   23 1
    39   22   50 1
    40   23   28 ar
    41   23   24 ar
    42   24   25 ar
    43   24   51 1
    44   25   26 ar
    45   25   52 1
    46   26   27 ar
    47   26   53 1
    48   27   34 1
    49   27   28 ar
    50   28   29 1
    51   29   30 1
    52   29   31 2
    53   31   32 1
    54   32   33 1
    55   32   34 am
    56   34   35 2
@<TRIPOS>MOLECULE
ZINC65490092
   46    47     0     0     0
SMALL
USER_CHARGES

@<TRIPOS>ATOM
      1 C1         -0.7272    1.1705   -0.2421 C.3       1 <0>         0.0302
      2 O1          0.0467   -0.0007    0.0252 O.3       1 <0>        -0.3224
      3 C2          0.6397   -0.6048   -1.0388 C.ar      1 <0>         0.0894
      4 C3          0.4834   -0.0763   -2.3119 C.ar      1 <0>        -0.1895
      5 C4          1.0853   -0.6892   -3.3929 C.ar      1 <0>        -0.1266
      6 C5          1.8473   -1.8349   -3.2054 C.ar      1 <0>         0.1453
      7 C6          2.0033   -2.3634   -1.9307 C.ar      1 <0>        -0.0767
      8 C7          1.4054   -1.7461   -0.8499 C.ar      1 <0>        -0.1310
      9 N1          2.4577   -2.4573   -4.3012 N.pl3     1 <0>        -0.6740
     10 C8          2.5965   -3.8103   -4.3245 C.2       1 <0>         0.5508
     11 O2          2.0483   -4.5600   -3.3501 O.3       1 <0>        -0.6145
     12 C9          3.3086   -4.4223   -5.3606 C.2       1 <0>        -0.4447
     13 C10         3.8917   -3.6247   -6.3972 C.1       1 <0>         0.2943
     14 N2          4.3543   -2.9920   -7.2195 N.1       1 <0>        -0.5351
     15 C11         3.4524   -5.8236   -5.3848 C.2       1 <0>         0.4221
     16 O3          2.9576   -6.5003   -4.5053 O.2       1 <0>        -0.4738
     17 C12         4.2198   -6.4832   -6.5015 C.3       1 <0>         0.0184
     18 O4          4.2250   -7.8986   -6.3047 O.3       1 <0>        -0.2880
     19 C13         4.8798   -8.6477   -7.2304 C.ar      1 <0>         0.1420
     20 C14         5.5093   -8.0328   -8.3029 C.ar      1 <0>        -0.2113
     21 C15         6.1746   -8.7965   -9.2423 C.ar      1 <0>        -0.0632
     22 C16         6.2131  -10.1727   -9.1145 C.ar      1 <0>        -0.1242
     23 C17         5.5861  -10.7881   -8.0468 C.ar      1 <0>        -0.0659
     24 C18         4.9247  -10.0283   -7.1014 C.ar      1 <0>        -0.1535
     25 C19         6.9392  -11.0035  -10.1410 C.3       1 <0>        -0.0926
     26 C20         8.3764  -11.1764   -9.7220 C.2       1 <0>         0.5124
     27 O5          8.7721  -10.6744   -8.6913 O.2       1 <0>        -0.5277
     28 N3          9.2220  -11.8888  -10.4926 N.am      1 <0>        -0.8624
     29 H1         -0.0907    1.9315   -0.6935 H         1 <0>         0.0509
     30 H2         -1.5379    0.9218   -0.9270 H         1 <0>         0.0515
     31 H3         -1.1435    1.5516    0.6905 H         1 <0>         0.0935
     32 H4         -0.1095    0.8146   -2.4576 H         1 <0>         0.1234
     33 H5          0.9633   -0.2778   -4.3840 H         1 <0>         0.1214
     34 H6          2.5955   -3.2546   -1.7842 H         1 <0>         0.1504
     35 H7          1.5306   -2.1542    0.1422 H         1 <0>         0.1284
     36 H8          2.7815   -1.9237   -5.0437 H         1 <0>         0.4001
     37 H9          3.7457   -6.2506   -7.4550 H         1 <0>         0.0758
     38 H10         5.2451   -6.1132   -6.5057 H         1 <0>         0.0761
     39 H11         5.4789   -6.9579   -8.4035 H         1 <0>         0.1284
     40 H12         6.6648   -8.3183  -10.0774 H         1 <0>         0.1184
     41 H13         5.6172  -11.8632   -7.9494 H         1 <0>         0.1229
     42 H14         4.4389  -10.5091   -6.2652 H         1 <0>         0.1317
     43 H15         6.4635  -11.9811  -10.2197 H         1 <0>         0.1006
     44 H16         6.9004  -10.5018  -11.1079 H         1 <0>         0.0998
     45 H17         8.9055  -12.2903  -11.3170 H         1 <0>         0.3997
     46 H18        10.1470  -12.0001  -10.2229 H         1 <0>         0.3994
@<TRIPOS>BOND
     1    1    2 1
     2    1   29 1
     3    1   30 1
     4    1   31 1
     5    2    3 1
     6    3    8 ar
     7    3    4 ar
     8    4    5 ar
     9    4   32 1
    10    5    6 ar
    11    5   33 1
    12    6    7 ar
    13    6    9 1
    14    7    8 ar
    15    7   34 1
    16    8   35 1
    17    9   10 1
    18    9   36 1
    19   10   11 1
    20   10   12 2
    21   12   13 1
    22   12   15 1
    23   13   14 3
    24   15   16 2
    25   15   17 1
    26   17   18 1
    27   17   37 1
    28   17   38 1
    29   18   19 1
    30   19   24 ar
    31   19   20 ar
    32   20   21 ar
    33   20   39 1
    34   21   22 ar
    35   21   40 1
    36   22   23 ar
    37   22   25 1
    38   23   24 ar
    39   23   41 1
    40   24   42 1
    41   25   26 1
    42   25   43 1
    43   25   44 1
    44   26   27 2
    45   26   28 am
    46   28   45 1
    47   28   46 1
@<TRIPOS>MOLECULE
ZINC13079390
   40    41     0     0     0
SMALL
USER_CHARGES
4-[(2,3-dimethyl-5-sulfamoyl-phenyl)sulfamoyl]benzoic acid
@<TRIPOS>ATOM
      1 C1         -4.6355    1.3570    1.6245 C.3       1 <0>        -0.1184
      2 C2         -3.4891    1.8609    0.7860 C.ar      1 <0>        -0.0841
      3 C3         -3.6438    3.0006    0.0179 C.ar      1 <0>        -0.0293
      4 C4         -2.5947    3.4661   -0.7531 C.ar      1 <0>        -0.6484
      5 C5         -1.3883    2.7935   -0.7589 C.ar      1 <0>        -0.0771
      6 C6         -1.2295    1.6487    0.0113 C.ar      1 <0>         0.1450
      7 C7         -2.2873    1.1810    0.7811 C.ar      1 <0>        -0.0438
      8 C8         -2.1216   -0.0643    1.6136 C.3       1 <0>        -0.1250
      9 N1         -0.0111    0.9658    0.0074 N.pl3     1 <0>        -1.0545
     10 S1          1.4100    1.8086   -0.1051 S.o2      1 <0>         2.6863
     11 O1          2.4575    0.8609    0.0494 O.2       1 <0>        -0.9513
     12 O2          1.2988    2.6412   -1.2512 O.2       1 <0>        -0.9467
     13 C9          1.4914    2.8811    1.2905 C.ar      1 <0>        -0.6848
     14 C10         0.9701    4.1601    1.2075 C.ar      1 <0>        -0.0369
     15 C11         1.0262    5.0033    2.2978 C.ar      1 <0>        -0.0981
     16 C12         1.6203    4.5672    3.4837 C.ar      1 <0>        -0.0472
     17 C13         2.1491    3.2771    3.5589 C.ar      1 <0>        -0.1095
     18 C14         2.0816    2.4425    2.4627 C.ar      1 <0>        -0.0355
     19 C15         1.6885    5.4664    4.6538 C.2       1 <0>         0.4826
     20 O3          2.2056    5.0840    5.6843 O.co2     1 <0>        -0.6212
     21 S2         -2.7972    4.9186   -1.7298 S.o2      1 <0>         2.6954
     22 O4         -3.8431    5.6696   -1.1287 O.2       1 <0>        -0.9601
     23 O5         -1.4970    5.4533   -1.9367 O.2       1 <0>        -0.9491
     24 N2         -3.3527    4.4372   -3.2137 N.pl3     1 <0>        -1.2498
     25 H1         -5.2354    0.6606    1.0387 H         1 <0>         0.0751
     26 H2         -4.2449    0.8480    2.5057 H         1 <0>         0.0741
     27 H3         -5.2553    2.1980    1.9355 H         1 <0>         0.0747
     28 H4         -4.5860    3.5284    0.0207 H         1 <0>         0.1461
     29 H5         -0.5695    3.1572   -1.3620 H         1 <0>         0.1799
     30 H6         -1.7589    0.2071    2.6050 H         1 <0>         0.0861
     31 H7         -3.0823   -0.5711    1.7043 H         1 <0>         0.0792
     32 H8         -1.4038   -0.7294    1.1335 H         1 <0>         0.0695
     33 H9          0.0025   -0.0023    0.0665 H         1 <0>         0.4258
     34 H10         0.5145    4.4976    0.2883 H         1 <0>         0.1378
     35 H11         0.6148    5.9998    2.2331 H         1 <0>         0.1438
     36 H12         2.6097    2.9334    4.4733 H         1 <0>         0.1386
     37 H13         2.4899    1.4443    2.5195 H         1 <0>         0.1344
     38 H14        -3.5015    3.4958   -3.3939 H         1 <0>         0.4160
     39 H15        -3.5292    5.0967   -3.9028 H         1 <0>         0.4201
     40 O6          1.1774    6.7104    4.5779 O.co2     1 <0>        -0.7398
@<TRIPOS>BOND
     1    1    2 1
     2    1   25 1
     3    1   26 1
     4    1   27 1
     5    2    7 ar
     6    2    3 ar
     7    3    4 ar
     8    3   28 1
     9    4    5 ar
    10    4   21 1
    11    5    6 ar
    12    5   29 1
    13    6    7 ar
    14    6    9 1
    15    7    8 1
    16    8   30 1
    17    8   31 1
    18    8   32 1
    19    9   10 1
    20    9   33 1
    21   10   11 2
    22   10   12 2
    23   10   13 1
    24   13   18 ar
    25   13   14 ar
    26   14   15 ar
    27   14   34 1
    28   15   16 ar
    29   15   35 1
    30   16   17 ar
    31   16   19 1
    32   17   18 ar
    33   17   36 1
    34   18   37 1
    35   19   20 2
    36   19   40 1
    37   21   22 2
    38   21   23 2
    39   21   24 1
    40   24   38 1
    41   24   39 1
@<TRIPOS>MOLECULE
ZINC28692642
   45    47     0     0     0
SMALL
USER_CHARGES
N-[2-oxo-2-[N'-[2-(2-thienylsulfonylamino)benzoyl]hydrazino]ethyl]furan-2-carboxamide
@<TRIPOS>ATOM
      1 C1         -3.3024   -1.1806    0.5231 C.ar      1 <0>        -0.2082
      2 C2         -4.5617   -0.6083    0.4336 C.ar      1 <0>        -0.0581
      3 C3         -4.6997    0.7548    0.2722 C.ar      1 <0>        -0.2434
      4 C4         -3.5730    1.5653    0.2040 C.ar      1 <0>         0.2950
      5 C5         -2.2965    0.9882    0.2885 C.ar      1 <0>        -0.1933
      6 C6         -2.1737   -0.3942    0.4519 C.ar      1 <0>        -0.0580
      7 C7         -1.0926    1.8358    0.2114 C.2       1 <0>         0.5653
      8 O1         -1.2038    3.0383    0.0691 O.2       1 <0>        -0.4962
      9 N1          0.1311    1.2778    0.2985 N.am      1 <0>        -0.5524
     10 N2          1.2752    2.0826    0.2195 N.am      1 <0>        -0.5163
     11 C8          2.4990    1.5239    0.3011 C.2       1 <0>         0.5057
     12 O2          2.6099    0.3246    0.4429 O.2       1 <0>        -0.5560
     13 C9          3.7296    2.3896    0.2160 C.3       1 <0>         0.1108
     14 N3          4.9254    1.5510    0.3300 N.am      1 <0>        -0.7177
     15 C10         6.1496    2.1126    0.2805 C.2       1 <0>         0.6066
     16 O3          6.2616    3.3163    0.1411 O.2       1 <0>        -0.5252
     17 C11         7.3467    1.2731    0.3946 C.2       1 <0>        -0.0751
     18 C12         8.6397    1.7105    0.3605 C.2       1 <0>        -0.1205
     19 C13         9.4535    0.5760    0.5046 C.2       1 <0>        -0.2267
     20 C14         8.6319   -0.4908    0.6189 C.2       1 <0>        -0.0048
     21 O4          7.3632   -0.0661    0.5575 O.3       1 <0>        -0.1625
     22 N4         -3.7093    2.9384    0.0472 N.2       1 <0>        -1.0080
     23 S1         -4.9661    3.7341    0.7750 S.o2      1 <0>         2.6058
     24 O5         -4.7567    5.1206    0.5446 O.2       1 <0>        -0.9825
     25 O6         -6.1552    3.0666    0.3755 O.2       1 <0>        -1.0323
     26 C15        -4.8064    3.4823    2.5115 C.2       1 <0>        -0.6919
     27 C16        -4.1378    4.2287    3.4244 C.2       1 <0>        -0.0527
     28 C17        -4.1501    3.8363    4.7497 C.2       1 <0>        -0.1782
     29 C18        -4.8304    2.7166    5.0974 C.2       1 <0>        -0.1779
     30 S2         -5.4897    2.1824    3.5266 S.3       1 <0>         0.1291
     31 H1         -3.2056   -2.2488    0.6498 H         1 <0>         0.1090
     32 H2         -5.4405   -1.2335    0.4910 H         1 <0>         0.1092
     33 H3         -5.6844    1.1929    0.2033 H         1 <0>         0.1520
     34 H4         -1.1951   -0.8454    0.5226 H         1 <0>         0.1068
     35 H5          0.2316    0.1905    0.4316 H         1 <0>         0.4448
     36 H6          1.1746    3.1704    0.0909 H         1 <0>         0.4598
     37 H7          3.7415    2.9159   -0.7498 H         1 <0>         0.1063
     38 H8          3.7180    3.1248    1.0341 H         1 <0>         0.1059
     39 H9          4.8242    0.4629    0.4560 H         1 <0>         0.4430
     40 H10         8.9719    2.7316    0.2448 H         1 <0>         0.1606
     41 H11        10.5332    0.5588    0.5211 H         1 <0>         0.1568
     42 H12         8.9465   -1.5163    0.7441 H         1 <0>         0.2107
     43 H13        -3.6038    5.1170    3.1208 H         1 <0>         0.1392
     44 H14        -3.6258    4.4133    5.4970 H         1 <0>         0.1316
     45 H15        -4.9468    2.2667    6.0723 H         1 <0>         0.1840
@<TRIPOS>BOND
     1    1    6 ar
     2    1    2 ar
     3    1   31 1
     4    2    3 ar
     5    2   32 1
     6    3    4 ar
     7    3   33 1
     8    4    5 ar
     9    4   22 1
    10    5    6 ar
    11    5    7 1
    12    6   34 1
    13    7    8 2
    14    7    9 am
    15    9   10 1
    16    9   35 1
    17   10   11 am
    18   10   36 1
    19   11   12 2
    20   11   13 1
    21   13   14 1
    22   13   37 1
    23   13   38 1
    24   14   15 am
    25   14   39 1
    26   15   16 2
    27   15   17 1
    28   17   21 1
    29   17   18 2
    30   18   19 1
    31   18   40 1
    32   19   20 2
    33   19   41 1
    34   20   21 1
    35   20   42 1
    36   22   23 1
    37   23   24 2
    38   23   25 2
    39   23   26 1
    40   26   30 1
    41   26   27 2
    42   27   28 1
    43   27   43 1
    44   28   29 2
    45   28   44 1
    46   29   30 1
    47   29   45 1
@<TRIPOS>MOLECULE
ZINC44136510
   50    52     0     0     0
SMALL
USER_CHARGES

@<TRIPOS>ATOM
      1 C1         -0.0187    1.5258    0.0104 C.3       1 <0>        -0.1375
      2 C2          0.0021   -0.0041    0.0020 C.3       1 <0>        -0.0354
      3 H1          0.5123   -0.3556   -0.8948 H         1 <0>         0.1045
      4 C3          0.7309   -0.5033    1.2229 C.ar      1 <0>        -0.0638
      5 C4          0.2500   -0.1784    2.4901 C.ar      1 <0>        -0.0532
      6 C5          0.8845   -0.6132    3.6128 C.ar      1 <0>        -0.1222
      7 C6          2.0421   -1.4021    3.4963 C.ar      1 <0>        -0.0086
      8 C7          2.7227   -1.8690    4.6328 C.ar      1 <0>        -0.1486
      9 C8          3.8441   -2.6337    4.4813 C.ar      1 <0>         0.1176
     10 C9          4.3247   -2.9581    3.2087 C.ar      1 <0>        -0.1993
     11 C10         3.6888   -2.5213    2.0890 C.ar      1 <0>        -0.0620
     12 C11         2.5308   -1.7327    2.2075 C.ar      1 <0>        -0.0835
     13 C12         1.8458   -1.2692    1.0715 C.ar      1 <0>        -0.0948
     14 O1          4.5017   -3.0848    5.5816 O.3       1 <0>        -0.3207
     15 C13         5.6681   -3.8800    5.3596 C.3       1 <0>         0.0286
     16 C14        -1.4117   -0.5257    0.0127 C.2       1 <0>         0.4455
     17 O2         -1.7888   -1.2305    0.9188 O.2       1 <0>        -0.4593
     18 O3         -2.2521   -0.2073   -0.9843 O.3       1 <0>        -0.3001
     19 C15        -3.5774   -0.7367   -0.9097 C.3       1 <0>         0.0895
     20 H2         -3.5589   -1.6924   -0.3859 H         1 <0>         0.0965
     21 C16        -4.1281   -0.9391   -2.3247 C.3       1 <0>         0.1132
     22 H3         -5.1194   -1.3889   -2.2692 H         1 <0>         0.0838
     23 C17        -4.2208    0.4206   -3.0240 C.3       1 <0>         0.0661
     24 H4         -4.6636    0.2928   -4.0117 H         1 <0>         0.0601
     25 C18        -5.0971    1.3570   -2.1879 C.3       1 <0>         0.2258
     26 H5         -6.1058    0.9492   -2.1226 H         1 <0>         0.0447
     27 O4         -4.5458    1.4772   -0.8749 O.3       1 <0>        -0.3552
     28 C19        -4.4781    0.2437   -0.1539 C.3       1 <0>         0.0126
     29 H6         -5.4787   -0.1788   -0.0621 H         1 <0>         0.0609
     30 C20        -3.9094    0.4923    1.2193 C.2       1 <0>         0.5082
     31 O5         -3.5077    1.6033    1.5208 O.co2     1 <0>        -0.6700
     32 O6         -3.8509   -0.4175    2.0288 O.co2     1 <0>        -0.6575
     33 O7         -5.1428    2.6448   -2.8055 O.3       1 <0>        -0.5497
     34 O8         -2.9125    0.9800   -3.1559 O.3       1 <0>        -0.5169
     35 O9         -3.2539   -1.7979   -3.0596 O.3       1 <0>        -0.5393
     36 H7          1.0039    1.9031    0.0027 H         1 <0>         0.0608
     37 H8         -0.5459    1.8868   -0.8726 H         1 <0>         0.0753
     38 H9         -0.5289    1.8773    0.9072 H         1 <0>         0.0719
     39 H10        -0.6392    0.4276    2.5823 H         1 <0>         0.1350
     40 H11         0.5008   -0.3530    4.5883 H         1 <0>         0.1283
     41 H12         2.3615   -1.6244    5.6208 H         1 <0>         0.1323
     42 H13         5.2138   -3.5640    3.1139 H         1 <0>         0.1253
     43 H14         4.0716   -2.7789    1.1125 H         1 <0>         0.1281
     44 H15         2.2043   -1.5163    0.0832 H         1 <0>         0.1252
     45 H16         5.3977   -4.7716    4.7939 H         1 <0>         0.0533
     46 H17         6.4008   -3.3012    4.7973 H         1 <0>         0.0531
     47 H18         6.0954   -4.1737    6.3184 H         1 <0>         0.0965
     48 H19        -5.6817    3.2908   -2.3287 H         1 <0>         0.3894
     49 H20        -2.8959    1.8433   -3.5911 H         1 <0>         0.3732
     50 H21        -3.5421   -1.9697   -3.9665 H         1 <0>         0.3723
@<TRIPOS>BOND
     1    1    2 1
     2    1   36 1
     3    1   37 1
     4    1   38 1
     5    2    3 1
     6    2    4 1
     7    2   16 1
     8    4   13 ar
     9    4    5 ar
    10    5    6 ar
    11    5   39 1
    12    6    7 ar
    13    6   40 1
    14    7   12 ar
    15    7    8 ar
    16    8    9 ar
    17    8   41 1
    18    9   10 ar
    19    9   14 1
    20   10   11 ar
    21   10   42 1
    22   11   12 ar
    23   11   43 1
    24   12   13 ar
    25   13   44 1
    26   14   15 1
    27   15   45 1
    28   15   46 1
    29   15   47 1
    30   16   17 2
    31   16   18 1
    32   18   19 1
    33   19   20 1
    34   19   28 1
    35   19   21 1
    36   21   22 1
    37   21   23 1
    38   21   35 1
    39   23   24 1
    40   23   25 1
    41   23   34 1
    42   25   26 1
    43   25   27 1
    44   25   33 1
    45   27   28 1
    46   28   29 1
    47   28   30 1
    48   30   31 2
    49   30   32 1
    50   33   48 1
    51   34   49 1
    52   35   50 1
@<TRIPOS>MOLECULE
ZINC39937881
   48    51     0     0     0
SMALL
USER_CHARGES

@<TRIPOS>ATOM
      1 C1          2.7748   -2.5335   -0.5446 C.3       1 <0>         0.1050
      2 N1          1.4056   -2.0159   -0.4845 N.am      1 <0>        -0.6113
      3 C2          0.2693   -2.9253   -0.2627 C.3       1 <0>         0.4141
      4 H1          0.4352   -3.4465    0.6801 H         1 <0>         0.0204
      5 C3         -1.1109   -2.3007   -0.2149 C.2       1 <0>        -0.4985
      6 C4         -1.1969   -0.9337   -0.3821 C.2       1 <0>         0.5150
      7 O1         -2.4026   -0.3311   -0.3471 O.3       1 <0>        -0.6486
      8 N2         -0.0713   -0.1846   -0.5824 N.am      1 <0>        -0.5578
      9 C5          1.1635   -0.6989   -0.6256 C.2       1 <0>         0.7148
     10 O2          2.1029    0.0517   -0.8041 O.2       1 <0>        -0.6008
     11 C6         -0.2246    1.2622   -0.7541 C.3       1 <0>         0.0931
     12 C7         -2.2502   -3.0778   -0.0102 C.2       1 <0>         0.4450
     13 O3         -2.1408   -4.2615    0.2471 O.2       1 <0>        -0.5619
     14 C8         -3.6173   -2.4512   -0.1076 C.3       1 <0>        -0.0954
     15 S1         -4.8853   -3.7384    0.0524 S.3       1 <0>        -0.0105
     16 C9         -6.4057   -2.8579   -0.0805 C.2       1 <0>         0.2314
     17 N3         -7.6479   -3.4150   -0.0126 N.pl3     1 <0>        -0.5438
     18 H2         -7.8512   -4.3548    0.1154 H         1 <0>         0.4269
     19 C10        -8.5653   -2.3880   -0.1606 C.2       1 <0>         0.0600
     20 C11        -7.8249   -1.2264   -0.3153 C.2       1 <0>         0.1258
     21 N4         -6.5196   -1.5631   -0.2547 N.2       1 <0>        -0.4596
     22 C12        -8.3659    0.1323   -0.5067 C.2       1 <0>        -0.0689
     23 C13        -7.8730    1.3300   -0.0565 C.2       1 <0>        -0.1318
     24 C14        -8.5592    2.4848   -0.3641 C.2       1 <0>        -0.1483
     25 C15        -9.6967    2.4027   -1.1000 C.2       1 <0>        -0.1925
     26 S2         -9.8289    0.6465   -1.3916 S.3       1 <0>         0.0679
     27 C16       -10.0290   -2.5061   -0.1551 C.2       1 <0>        -0.0856
     28 C17       -10.8437   -3.2179    0.7078 C.2       1 <0>        -0.1499
     29 C18       -12.2059   -3.1725    0.5074 C.2       1 <0>        -0.1505
     30 C19       -12.7021   -2.4382   -0.5201 C.2       1 <0>        -0.1917
     31 S3        -11.2225   -1.7626   -1.2552 S.3       1 <0>         0.1104
     32 N5          0.2751   -3.9276   -1.3367 N.3       1 <0>        -0.8579
     33 H3          3.4681   -1.7088   -0.7095 H         1 <0>         0.0873
     34 H4          3.0172   -3.0295    0.3952 H         1 <0>         0.0537
     35 H5          2.8577   -3.2473   -1.3641 H         1 <0>         0.0585
     36 H6         -0.1688    1.7514    0.2184 H         1 <0>         0.0519
     37 H7          0.5718    1.6383   -1.3963 H         1 <0>         0.0727
     38 H8         -1.1909    1.4734   -1.2121 H         1 <0>         0.0845
     39 H9         -3.7394   -1.7196    0.6912 H         1 <0>         0.1205
     40 H10        -3.7220   -1.9560   -1.0730 H         1 <0>         0.1184
     41 H11        -6.9655    1.3675    0.5278 H         1 <0>         0.1395
     42 H12        -8.1964    3.4434   -0.0236 H         1 <0>         0.1334
     43 H13       -10.3516    3.1963   -1.4281 H         1 <0>         0.1827
     44 H14       -10.4222   -3.7948    1.5178 H         1 <0>         0.1331
     45 H15       -12.8720   -3.7159    1.1612 H         1 <0>         0.1342
     46 H16       -13.7310   -2.2959   -0.8159 H         1 <0>         0.1857
     47 H17         1.1670   -4.3964   -1.3890 H         1 <0>         0.3189
     48 H18        -0.4756   -4.5910   -1.2162 H         1 <0>         0.3605
@<TRIPOS>BOND
     1    1    2 1
     2    1   33 1
     3    1   34 1
     4    1   35 1
     5    2    9 am
     6    2    3 1
     7    3    4 1
     8    3    5 1
     9    3   32 1
    10    5    6 2
    11    5   12 1
    12    6    7 1
    13    6    8 1
    14    8    9 am
    15    8   11 1
    16    9   10 2
    17   11   36 1
    18   11   37 1
    19   11   38 1
    20   12   13 2
    21   12   14 1
    22   14   15 1
    23   14   39 1
    24   14   40 1
    25   15   16 1
    26   16   21 2
    27   16   17 1
    28   17   18 1
    29   17   19 1
    30   19   20 2
    31   19   27 1
    32   20   21 1
    33   20   22 1
    34   22   26 1
    35   22   23 2
    36   23   24 1
    37   23   41 1
    38   24   25 2
    39   24   42 1
    40   25   26 1
    41   25   43 1
    42   27   31 1
    43   27   28 2
    44   28   29 1
    45   28   44 1
    46   29   30 2
    47   29   45 1
    48   30   31 1
    49   30   46 1
    50   32   47 1
    51   32   48 1
@<TRIPOS>MOLECULE
ZINC65203446
   42    43     0     0     0
SMALL
USER_CHARGES

@<TRIPOS>ATOM
      1 C1         -0.0225    1.8097    0.0120 C.3       1 <0>        -0.6317
      2 S1          0.0021   -0.0041    0.0020 S.o2      1 <0>         2.5182
      3 O1          0.8352   -0.4880    1.0465 O.2       1 <0>        -1.0290
      4 O2         -1.3147   -0.5105   -0.1678 O.2       1 <0>        -1.0290
      5 N1          0.7947   -0.4113   -1.3938 N.2       1 <0>        -1.0401
      6 C2          0.9908   -1.7477   -1.7163 C.ar      1 <0>         0.3373
      7 C3          0.5185   -2.7463   -0.8734 C.ar      1 <0>        -0.2552
      8 C4          0.7146   -4.0731   -1.1960 C.ar      1 <0>        -0.0428
      9 C5          1.3818   -4.4212   -2.3601 C.ar      1 <0>        -0.2361
     10 C6          1.8569   -3.4455   -3.2084 C.ar      1 <0>        -0.0422
     11 C7          1.6621   -2.0970   -2.8983 C.ar      1 <0>        -0.2210
     12 C8          2.1630   -1.0476   -3.8047 C.2       1 <0>         0.5699
     13 O3          1.9950    0.1249   -3.5291 O.2       1 <0>        -0.4933
     14 N2          2.8070   -1.3877   -4.9387 N.am      1 <0>        -0.5532
     15 N3          3.2830   -0.3905   -5.8000 N.am      1 <0>        -0.5249
     16 C9          3.9271   -0.7306   -6.9340 C.2       1 <0>         0.7130
     17 O4          4.3402    0.1348   -7.6815 O.2       1 <0>        -0.5852
     18 N4          4.1132   -2.0300   -7.2395 N.am      1 <0>        -0.7479
     19 C10         4.8133   -2.3997   -8.4721 C.3       1 <0>         0.1440
     20 C11         4.8891   -3.9242   -8.5780 C.3       1 <0>        -0.0502
     21 C12         5.6093   -4.3045   -9.8460 C.2       1 <0>        -0.1346
     22 C13         6.9333   -4.5157  -10.0452 C.2       1 <0>        -0.1562
     23 C14         7.3744   -4.8609  -11.3089 C.2       1 <0>        -0.1553
     24 C15         6.4698   -4.9780  -12.3116 C.2       1 <0>        -0.1772
     25 S2          4.9390   -4.6015  -11.4738 S.3       1 <0>         0.0383
     26 H1          1.0001    2.1870    0.0043 H         1 <0>         0.1169
     27 H2         -0.5497    2.1708   -0.8711 H         1 <0>         0.1170
     28 H3         -0.5327    2.1613    0.9088 H         1 <0>         0.1009
     29 H4         -0.0024   -2.4834    0.0355 H         1 <0>         0.1088
     30 H5          0.3462   -4.8456   -0.5373 H         1 <0>         0.1062
     31 H6          1.5303   -5.4630   -2.6030 H         1 <0>         0.1072
     32 H7          2.3760   -3.7225   -4.1140 H         1 <0>         0.1020
     33 H8          2.9410   -2.3229   -5.1586 H         1 <0>         0.4080
     34 H9          3.1491    0.5447   -5.5802 H         1 <0>         0.4421
     35 H10         3.7837   -2.7204   -6.6431 H         1 <0>         0.3938
     36 H11         4.2719   -2.0024   -9.3306 H         1 <0>         0.0717
     37 H12         5.8216   -1.9861   -8.4553 H         1 <0>         0.0728
     38 H13         5.4306   -4.3215   -7.7195 H         1 <0>         0.0964
     39 H14         3.8808   -4.3378   -8.5948 H         1 <0>         0.0892
     40 H15         7.6332   -4.4153   -9.2288 H         1 <0>         0.1343
     41 H16         8.4240   -5.0343  -11.4946 H         1 <0>         0.1328
     42 H17         6.6325   -5.2362  -13.3476 H         1 <0>         0.1843
@<TRIPOS>BOND
     1    1    2 1
     2    1   26 1
     3    1   27 1
     4    1   28 1
     5    2    3 2
     6    2    4 2
     7    2    5 1
     8    5    6 1
     9    6   11 ar
    10    6    7 ar
    11    7    8 ar
    12    7   29 1
    13    8    9 ar
    14    8   30 1
    15    9   10 ar
    16    9   31 1
    17   10   11 ar
    18   10   32 1
    19   11   12 1
    20   12   13 2
    21   12   14 am
    22   14   15 1
    23   14   33 1
    24   15   16 am
    25   15   34 1
    26   16   17 2
    27   16   18 am
    28   18   19 1
    29   18   35 1
    30   19   20 1
    31   19   36 1
    32   19   37 1
    33   20   21 1
    34   20   38 1
    35   20   39 1
    36   21   25 1
    37   21   22 2
    38   22   23 1
    39   22   40 1
    40   23   24 2
    41   23   41 1
    42   24   25 1
    43   24   42 1
@<TRIPOS>MOLECULE
ZINC13240356
   42    44     0     0     0
SMALL
USER_CHARGES
5-[(5-carbamoyl-2-pyrrolidin-1-yl-phenyl)sulfamoyl]thiophene-3-carboxylic acid
@<TRIPOS>ATOM
      1 C1          1.0703    1.5381   -0.2407 C.ar      1 <0>        -0.0757
      2 C2         -0.1387    0.8833   -0.1493 C.ar      1 <0>        -0.1584
      3 C3         -1.3273    1.5986   -0.2267 C.ar      1 <0>         0.1134
      4 C4         -1.3007    2.9872   -0.3868 C.ar      1 <0>         0.1438
      5 C5         -0.0908    3.6477   -0.4788 C.ar      1 <0>        -0.0916
      6 C6          1.1042    2.9249   -0.4061 C.ar      1 <0>        -0.1319
      7 C7          2.3986    3.6259   -0.5033 C.2       1 <0>         0.5639
      8 O1          2.4270    4.8330   -0.6473 O.2       1 <0>        -0.5266
      9 N1          3.5497    2.9284   -0.4326 N.am      1 <0>        -0.8539
     10 N2         -2.4995    3.7072   -0.4597 N.pl3     1 <0>        -1.0465
     11 S1         -2.6034    5.0465   -1.4282 S.o2      1 <0>         2.7281
     12 O2         -3.9583    5.4729   -1.3877 O.2       1 <0>        -0.9447
     13 O3         -1.5258    5.8972   -1.0617 O.2       1 <0>        -0.9409
     14 C8         -2.2901    4.5203   -3.0803 C.2       1 <0>        -0.8012
     15 C9         -3.1710    4.0853   -4.0020 C.2       1 <0>         0.0561
     16 C10        -2.6427    3.7157   -5.2916 C.2       1 <0>        -0.1938
     17 C11        -1.2783    3.8308   -5.4666 C.2       1 <0>        -0.1139
     18 S2         -0.7307    4.4268   -3.9358 S.3       1 <0>         0.1739
     19 C12        -3.5175    3.2331   -6.3704 C.2       1 <0>         0.5062
     20 O4         -4.7157    3.1427   -6.1867 O.co2     1 <0>        -0.6277
     21 N3         -2.5476    0.9316   -0.1391 N.pl3     1 <0>        -0.4680
     22 C13        -2.3461   -0.5371   -0.0474 C.3       1 <0>         0.0272
     23 C14        -3.6806   -1.0410    0.5574 C.3       1 <0>        -0.1249
     24 C15        -4.0433    0.0707    1.5687 C.3       1 <0>        -0.1293
     25 C16        -3.2750    1.3164    1.0898 C.3       1 <0>         0.0322
     26 H1          1.9925    0.9787   -0.1847 H         1 <0>         0.1296
     27 H2         -0.1624   -0.1888   -0.0218 H         1 <0>         0.1420
     28 H3         -0.0679    4.7199   -0.6063 H         1 <0>         0.1789
     29 H4          3.5270    1.9654   -0.3178 H         1 <0>         0.3990
     30 H5          4.4008    3.3893   -0.4966 H         1 <0>         0.4045
     31 H6         -3.2691    3.4215    0.0570 H         1 <0>         0.4241
     32 H7         -4.2270    4.0189   -3.7853 H         1 <0>         0.1528
     33 H8         -0.6936    3.6040   -6.3458 H         1 <0>         0.1972
     34 H9         -2.1858   -0.9660   -1.0366 H         1 <0>         0.0934
     35 H10        -1.5116   -0.7703    0.6140 H         1 <0>         0.0640
     36 H11        -3.5377   -1.9940    1.0667 H         1 <0>         0.0770
     37 H12        -4.4460   -1.1255   -0.2140 H         1 <0>         0.0804
     38 H13        -3.7212   -0.2102    2.5714 H         1 <0>         0.0719
     39 H14        -5.1167    0.2596    1.5543 H         1 <0>         0.0788
     40 H15        -2.5676    1.6336    1.8560 H         1 <0>         0.0591
     41 H16        -3.9723    2.1250    0.8708 H         1 <0>         0.0839
     42 O5         -2.9907    2.8907   -7.5630 O.co2     1 <0>        -0.7524
@<TRIPOS>BOND
     1    1    6 ar
     2    1    2 ar
     3    1   26 1
     4    2    3 ar
     5    2   27 1
     6    3    4 ar
     7    3   21 1
     8    4    5 ar
     9    4   10 1
    10    5    6 ar
    11    5   28 1
    12    6    7 1
    13    7    8 2
    14    7    9 am
    15    9   29 1
    16    9   30 1
    17   10   11 1
    18   10   31 1
    19   11   12 2
    20   11   13 2
    21   11   14 1
    22   14   18 1
    23   14   15 2
    24   15   16 1
    25   15   32 1
    26   16   17 2
    27   16   19 1
    28   17   18 1
    29   17   33 1
    30   19   20 2
    31   19   42 1
    32   21   25 1
    33   21   22 1
    34   22   23 1
    35   22   34 1
    36   22   35 1
    37   23   24 1
    38   23   36 1
    39   23   37 1
    40   24   25 1
    41   24   38 1
    42   24   39 1
    43   25   40 1
    44   25   41 1
@<TRIPOS>MOLECULE
ZINC22064149
   51    53     0     0     0
SMALL
USER_CHARGES
[(2S,3S,4R,5S,6S)-5-acetamido-3,4-dihydroxy-6-(4-methyl-2-oxo-chromen-7-yl)oxy-tetrahydropyran-2-yl]methyl hydrogen sulfate
@<TRIPOS>ATOM
      1 C1         -2.8417    2.7646    8.3429 C.3       1 <0>        -0.1344
      2 C2         -2.6681    1.4064    7.7134 C.2       1 <0>         0.0529
      3 C3         -2.7335    0.2760    8.4640 C.2       1 <0>        -0.2796
      4 C4         -2.5683   -0.9832    7.8514 C.2       1 <0>         0.5148
      5 O1         -2.6292   -1.9886    8.5360 O.2       1 <0>        -0.4770
      6 O2         -2.3461   -1.1023    6.5330 O.3       1 <0>        -0.2718
      7 C5         -2.2694   -0.0191    5.7305 C.ar      1 <0>         0.1831
      8 C6         -2.4250    1.2692    6.2759 C.ar      1 <0>        -0.1951
      9 C7         -2.3462    2.3945    5.4480 C.ar      1 <0>        -0.0107
     10 C8         -2.1182    2.2385    4.1112 C.ar      1 <0>        -0.2053
     11 C9         -1.9634    0.9659    3.5657 C.ar      1 <0>         0.1930
     12 C10        -2.0436   -0.1596    4.3699 C.ar      1 <0>        -0.1749
     13 O3         -1.7376    0.8271    2.2343 O.3       1 <0>        -0.2949
     14 C11        -1.6717    2.0258    1.4591 C.3       1 <0>         0.2366
     15 H1         -0.9531    2.6987    1.9498 H         1 <0>         0.1145
     16 C12        -1.2896    1.6810    0.0173 C.3       1 <0>         0.1586
     17 H2         -1.1503    2.5946   -0.5792 H         1 <0>         0.1357
     18 C13        -2.3780    0.7923   -0.5925 C.3       1 <0>         0.1246
     19 H3         -2.1374    0.5113   -1.6284 H         1 <0>         0.0756
     20 C14        -3.7235    1.5193   -0.5057 C.3       1 <0>         0.0634
     21 H4         -4.5353    0.9188   -0.9421 H         1 <0>         0.0776
     22 C15        -4.0116    1.8704    0.9563 C.3       1 <0>         0.0629
     23 H5         -4.0407    0.9689    1.5860 H         1 <0>         0.0940
     24 O4         -2.9463    2.6718    1.4712 O.3       1 <0>        -0.3613
     25 C16        -5.3253    2.6496    1.0446 C.3       1 <0>         0.0930
     26 O5         -5.6535    2.8761    2.4168 O.3       1 <0>        -0.7712
     27 S1         -6.9491    3.6473    2.6243 S.o2      1 <0>         2.7737
     28 O6         -7.0164    3.9635    4.0081 O.2       1 <0>        -1.0582
     29 O7         -6.9952    4.6437    1.6122 O.2       1 <0>        -1.0915
     30 O8         -8.0951    2.6865    2.3414 O.3       1 <0>        -1.1062
     31 O9         -3.6704    2.7166   -1.2840 O.3       1 <0>        -0.5898
     32 O10        -2.4504   -0.4386    0.1297 O.3       1 <0>        -0.5724
     33 N1         -0.0111    0.9658    0.0074 N.am      1 <0>        -0.7280
     34 C17         1.1468    1.6555   -0.0000 C.2       1 <0>         0.5095
     35 O11         1.1304    2.8682    0.0067 O.2       1 <0>        -0.5500
     36 C18         2.4620    0.9199   -0.0165 C.3       1 <0>        -0.1744
     37 H6         -3.0131    2.6488    9.4233 H         1 <0>         0.0805
     38 H7         -3.7045    3.2724    7.8871 H         1 <0>         0.0949
     39 H8         -1.9342    3.3639    8.1778 H         1 <0>         0.0874
     40 H9         -2.9118    0.3417    9.5271 H         1 <0>         0.1596
     41 H10        -2.4658    3.3834    5.8653 H         1 <0>         0.1425
     42 H11        -2.0571    3.1072    3.4724 H         1 <0>         0.1467
     43 H12        -1.9270   -1.1429    3.9387 H         1 <0>         0.1496
     44 H13        -5.2140    3.6154    0.5300 H         1 <0>         0.0937
     45 H14        -6.1284    2.0697    0.5664 H         1 <0>         0.0897
     46 H15        -4.5503    3.3741   -1.3423 H         1 <0>         0.4220
     47 H16        -3.1794   -1.2075   -0.1657 H         1 <0>         0.4134
     48 H17         0.0038   -0.1341    0.0060 H         1 <0>         0.4335
     49 H18         3.2882    1.6461   -0.0205 H         1 <0>         0.0919
     50 H19         2.5203    0.2932   -0.9186 H         1 <0>         0.0883
     51 H20         2.5374    0.2836    0.8776 H         1 <0>         0.0895
@<TRIPOS>BOND
     1    1    2 1
     2    1   37 1
     3    1   38 1
     4    1   39 1
     5    2    8 1
     6    2    3 2
     7    3    4 1
     8    3   40 1
     9    4    5 2
    10    4    6 1
    11    6    7 1
    12    7   12 ar
    13    7    8 ar
    14    8    9 ar
    15    9   10 ar
    16    9   41 1
    17   10   11 ar
    18   10   42 1
    19   11   12 ar
    20   11   13 1
    21   12   43 1
    22   13   14 1
    23   14   15 1
    24   14   24 1
    25   14   16 1
    26   16   17 1
    27   16   18 1
    28   16   33 1
    29   18   19 1
    30   18   20 1
    31   18   32 1
    32   20   21 1
    33   20   22 1
    34   20   31 1
    35   22   23 1
    36   22   24 1
    37   22   25 1
    38   25   26 1
    39   25   44 1
    40   25   45 1
    41   26   27 1
    42   27   28 2
    43   27   29 2
    44   27   30 1
    45   31   46 1
    46   32   47 1
    47   33   34 am
    48   33   48 1
    49   34   35 2
    50   34   36 1
    51   36   49 1
    52   36   50 1
    53   36   51 1
@<TRIPOS>MOLECULE
ZINC08590733
   40    42     0     0     0
SMALL
USER_CHARGES

@<TRIPOS>ATOM
      1 C1         -0.1024    2.1972   -0.4314 C.ar      1 <0>        -0.0951
      2 C2          1.1431    2.7609   -0.2325 C.ar      1 <0>        -0.1349
      3 C3          2.2874    1.9976   -0.4198 C.ar      1 <0>         0.1755
      4 C4          2.1768    0.6688   -0.8067 C.ar      1 <0>        -0.1422
      5 C5          0.9283    0.1099   -1.0042 C.ar      1 <0>        -0.0210
      6 C6         -0.2105    0.8740   -0.8165 C.ar      1 <0>        -0.1384
      7 Cl1         0.7882   -1.5515   -1.4880 Cl        1 <0>        -0.0810
      8 N1          3.5520    2.5674   -0.2192 N.am      1 <0>        -0.5344
      9 C7          4.7176    1.8887   -0.2720 C.2       1 <0>         0.4830
     10 O1          4.8739    0.7072   -0.4951 O.2       1 <0>        -0.4560
     11 C8          5.7890    2.9243    0.0072 C.3       1 <0>         0.2632
     12 N2          5.0329    4.1718    0.2009 N.2       1 <0>        -0.6030
     13 C9          3.7771    3.8949    0.0527 C.2       1 <0>         0.5924
     14 O2          2.7920    4.8133    0.1583 O.3       1 <0>        -0.6473
     15 C10         6.7373    3.0512   -1.1868 C.3       1 <0>         0.4797
     16 F1          5.9987    3.3342   -2.3408 F         1 <0>        -0.1712
     17 F2          7.6484    4.0862   -0.9508 F         1 <0>        -0.1609
     18 F3          7.4316    1.8492   -1.3607 F         1 <0>        -0.1773
     19 N3          6.5327    2.5801    1.2216 N.pl3     1 <0>        -1.0843
     20 S1          5.7712    2.5984    2.6920 S.o2      1 <0>         2.6864
     21 O3          6.7577    2.2808    3.6642 O.2       1 <0>        -0.9672
     22 O4          5.0117    3.7983    2.7411 O.2       1 <0>        -0.9124
     23 C11         4.6141    1.2695    2.6959 C.ar      1 <0>        -0.7383
     24 C12         3.3225    1.4781    2.2480 C.ar      1 <0>         0.0269
     25 C13         2.4131    0.4388    2.2497 C.ar      1 <0>        -0.2030
     26 C14         2.7970   -0.8172    2.7021 C.ar      1 <0>         0.2712
     27 C15         4.0952   -1.0233    3.1514 C.ar      1 <0>        -0.2193
     28 C16         5.0012    0.0190    3.1416 C.ar      1 <0>         0.0326
     29 N4          1.8797   -1.8705    2.7057 N.pl3     1 <0>        -0.8665
     30 H1         -0.9928    2.7898   -0.2813 H         1 <0>         0.1337
     31 H2          1.2265    3.7949    0.0681 H         1 <0>         0.1830
     32 H3          3.0654    0.0727   -0.9535 H         1 <0>         0.1543
     33 H4         -1.1854    0.4355   -0.9710 H         1 <0>         0.1270
     34 H5          7.4712    2.3415    1.1643 H         1 <0>         0.4190
     35 H6          3.0246    2.4550    1.8967 H         1 <0>         0.1408
     36 H7          1.4044    0.6024    1.9001 H         1 <0>         0.1251
     37 H8          4.3969   -1.9985    3.5041 H         1 <0>         0.1255
     38 H9          6.0120   -0.1416    3.4867 H         1 <0>         0.1350
     39 H10         0.9733   -1.7253    2.3920 H         1 <0>         0.4006
     40 H11         2.1489   -2.7471    3.0218 H         1 <0>         0.3989
@<TRIPOS>BOND
     1    1    6 ar
     2    1    2 ar
     3    1   30 1
     4    2    3 ar
     5    2   31 1
     6    3    4 ar
     7    3    8 1
     8    4    5 ar
     9    4   32 1
    10    5    6 ar
    11    5    7 1
    12    6   33 1
    13    8   13 1
    14    8    9 am
    15    9   10 2
    16    9   11 1
    17   11   12 1
    18   11   15 1
    19   11   19 1
    20   12   13 2
    21   13   14 1
    22   15   16 1
    23   15   17 1
    24   15   18 1
    25   19   20 1
    26   19   34 1
    27   20   21 2
    28   20   22 2
    29   20   23 1
    30   23   28 ar
    31   23   24 ar
    32   24   25 ar
    33   24   35 1
    34   25   26 ar
    35   25   36 1
    36   26   27 ar
    37   26   29 1
    38   27   28 ar
    39   27   37 1
    40   28   38 1
    41   29   39 1
    42   29   40 1
@<TRIPOS>MOLECULE
ZINC45873720
   56    60     0     0     0
SMALL
USER_CHARGES

@<TRIPOS>ATOM
      1 C1         -0.0160    1.3731    0.0292 C.ar      1 <0>        -0.2351
      2 C2          1.1705    2.0897    0.0230 C.ar      1 <0>        -0.0395
      3 C3          2.3834    1.4325    0.0029 C.ar      1 <0>        -0.2660
      4 C4          2.4224    0.0436   -0.0118 C.ar      1 <0>         0.3310
      5 C5          1.2227   -0.6848   -0.0056 C.ar      1 <0>        -0.2215
      6 C6          0.0025   -0.0042    0.0153 C.ar      1 <0>        -0.0397
      7 C7          1.2498   -2.1586   -0.0215 C.2       1 <0>         0.5636
      8 O1          2.3140   -2.7471   -0.0401 O.2       1 <0>        -0.4833
      9 N1          0.0953   -2.8539   -0.0155 N.am      1 <0>        -0.6839
     10 C8          0.1177   -4.2502   -0.1298 C.ar      1 <0>         0.0672
     11 C9          1.1471   -4.9894    0.4515 C.ar      1 <0>        -0.0363
     12 C10         1.1290   -6.3649    0.3141 C.ar      1 <0>        -0.2174
     13 C11         0.0915   -6.9619   -0.3948 C.ar      1 <0>         0.3772
     14 N2         -0.8692   -6.2286   -0.9340 N.ar      1 <0>        -0.5250
     15 C12        -0.8864   -4.9142   -0.8175 C.ar      1 <0>         0.1106
     16 N3          0.0639   -8.3464   -0.5391 N.pl3     1 <0>        -0.6198
     17 C13        -0.8825   -8.9930   -1.4619 C.3       1 <0>         0.0972
     18 C14        -0.1005   -9.9626   -2.3554 C.3       1 <0>         0.0449
     19 O2          0.6809  -10.8335   -1.5341 O.3       1 <0>        -0.3826
     20 C15         1.6717  -10.1654   -0.7495 C.3       1 <0>         0.0460
     21 C16         0.9843   -9.2059    0.2221 C.3       1 <0>         0.0916
     22 N4          3.6422   -0.6202   -0.0330 N.2       1 <0>        -1.0293
     23 S1          5.0550    0.2436   -0.0409 S.o2      1 <0>         2.5957
     24 O3          5.0995    0.9381   -1.2798 O.2       1 <0>        -1.0266
     25 O4          5.1289    0.9126    1.2106 O.2       1 <0>        -1.0246
     26 C17         6.3773   -0.9206   -0.0684 C.ar      1 <0>        -0.6002
     27 C18         6.9049   -1.3926    1.1213 C.ar      1 <0>        -0.0094
     28 C19         7.9414   -2.3053    1.1099 C.ar      1 <0>        -0.1290
     29 C20         8.4557   -2.7506   -0.0983 C.ar      1 <0>         0.1240
     30 C21         7.9235   -2.2746   -1.2982 C.ar      1 <0>         0.0613
     31 C22         6.8791   -1.3627   -1.2768 C.ar      1 <0>         0.0004
     32 N5          8.6316   -2.8928   -2.3261 N.am      1 <0>        -0.6386
     33 H1          8.4866   -2.7590   -3.2758 H         1 <0>         0.4363
     34 C23         9.5522   -3.7074   -1.7767 C.2       1 <0>         0.6856
     35 O5         10.3387   -4.3966   -2.3989 O.2       1 <0>        -0.5628
     36 N6          9.4707   -3.6434   -0.4343 N.am      1 <0>        -0.6418
     37 H2         10.0244   -4.1351    0.1921 H         1 <0>         0.4347
     38 H3         -0.9600    1.8974    0.0496 H         1 <0>         0.1078
     39 H4          1.1453    3.1693    0.0337 H         1 <0>         0.1073
     40 H5          3.3034    1.9982   -0.0018 H         1 <0>         0.1042
     41 H6         -0.9251   -0.5574    0.0202 H         1 <0>         0.1071
     42 H7         -0.7512   -2.3876    0.0680 H         1 <0>         0.4022
     43 H8          1.9403   -4.4988    0.9962 H         1 <0>         0.1530
     44 H9          1.9107   -6.9684    0.7513 H         1 <0>         0.1300
     45 H10        -1.6895   -4.3489   -1.2667 H         1 <0>         0.1544
     46 H11        -1.6329   -9.5421   -0.8930 H         1 <0>         0.0640
     47 H12        -1.3690   -8.2370   -2.0782 H         1 <0>         0.1012
     48 H13        -0.7978  -10.5520   -2.9508 H         1 <0>         0.1026
     49 H14         0.5573   -9.3984   -3.0166 H         1 <0>         0.0542
     50 H15         2.2494  -10.9007   -0.1894 H         1 <0>         0.1045
     51 H16         2.3359   -9.6019   -1.4048 H         1 <0>         0.0560
     52 H17         1.7335   -8.5907    0.7205 H         1 <0>         0.0942
     53 H18         0.4251   -9.7767    0.9634 H         1 <0>         0.0706
     54 H19         6.5046   -1.0454    2.0623 H         1 <0>         0.1489
     55 H20         8.3507   -2.6710    2.0400 H         1 <0>         0.1370
     56 H21         6.4620   -0.9956   -2.2029 H         1 <0>         0.1460
@<TRIPOS>BOND
     1    1    6 ar
     2    1    2 ar
     3    1   38 1
     4    2    3 ar
     5    2   39 1
     6    3    4 ar
     7    3   40 1
     8    4    5 ar
     9    4   22 1
    10    5    6 ar
    11    5    7 1
    12    6   41 1
    13    7    8 2
    14    7    9 am
    15    9   10 1
    16    9   42 1
    17   10   15 ar
    18   10   11 ar
    19   11   12 ar
    20   11   43 1
    21   12   13 ar
    22   12   44 1
    23   13   14 ar
    24   13   16 1
    25   14   15 ar
    26   15   45 1
    27   16   21 1
    28   16   17 1
    29   17   18 1
    30   17   46 1
    31   17   47 1
    32   18   19 1
    33   18   48 1
    34   18   49 1
    35   19   20 1
    36   20   21 1
    37   20   50 1
    38   20   51 1
    39   21   52 1
    40   21   53 1
    41   22   23 1
    42   23   24 2
    43   23   25 2
    44   23   26 1
    45   26   31 ar
    46   26   27 ar
    47   27   28 ar
    48   27   54 1
    49   28   29 ar
    50   28   55 1
    51   29   36 1
    52   29   30 ar
    53   30   31 ar
    54   30   32 1
    55   31   56 1
    56   32   33 1
    57   32   34 am
    58   34   35 2
    59   34   36 am
    60   36   37 1
@<TRIPOS>MOLECULE
ZINC40286468
   48    51     0     0     0
SMALL
USER_CHARGES

@<TRIPOS>ATOM
      1 C1         -0.0167    1.3784    0.0096 C.ar      1 <0>        -0.0702
      2 C2          1.1695    2.0865    0.0021 C.ar      1 <0>        -0.1466
      3 C3          2.3802    1.4093   -0.0131 C.ar      1 <0>         0.1239
      4 C4          2.3963    0.0221   -0.0206 C.ar      1 <0>        -0.2036
      5 C5          1.2074   -0.6814   -0.0130 C.ar      1 <0>        -0.0601
      6 C6          0.0021   -0.0041    0.0020 C.ar      1 <0>        -0.1114
      7 C7         -1.2934   -0.7740    0.0107 C.3       1 <0>         0.0401
      8 H1         -2.1326   -0.0786    0.0227 H         1 <0>         0.0949
      9 C8         -1.3505   -1.6708    1.2501 C.3       1 <0>        -0.1267
     10 C9         -0.4701   -2.8780    1.0991 C.2       1 <0>         0.5166
     11 O1          0.1230   -3.2993    2.0698 O.2       1 <0>        -0.5460
     12 N1         -0.3194   -3.5095   -0.0870 N.am      1 <0>        -0.6242
     13 C10        -0.9048   -2.9241   -1.2169 C.2       1 <0>         0.1133
     14 C11        -1.3740   -1.6447   -1.2189 C.2       1 <0>        -0.0581
     15 N2         -1.8802   -1.3590   -2.4498 N.pl3     1 <0>        -0.3800
     16 C12        -1.7577   -2.4264   -3.2672 C.2       1 <0>         0.0385
     17 C13        -1.1466   -3.4600   -2.5510 C.2       1 <0>        -0.1957
     18 C14        -0.8172   -4.8032   -3.0386 C.2       1 <0>         0.5482
     19 O2         -1.0806   -5.1173   -4.1920 O.co2     1 <0>        -0.6920
     20 O3         -0.2787   -5.6103   -2.2922 O.co2     1 <0>        -0.6921
     21 C15        -2.4485   -0.1309   -2.8165 C.ar      1 <0>         0.1313
     22 C16        -3.4208    0.4519   -2.0149 C.ar      1 <0>        -0.0971
     23 C17        -3.9795    1.6617   -2.3778 C.ar      1 <0>        -0.1352
     24 C18        -3.5707    2.2932   -3.5405 C.ar      1 <0>         0.0918
     25 C19        -2.6013    1.7132   -4.3415 C.ar      1 <0>        -0.1326
     26 C20        -2.0356    0.5067   -3.9786 C.ar      1 <0>        -0.0903
     27 F1         -4.1187    3.4764   -3.8940 F         1 <0>        -0.1386
     28 O4          3.5484    2.1036   -0.0209 O.3       1 <0>        -0.2916
     29 C21         4.7565    1.3405   -0.0365 C.3       1 <0>         0.0377
     30 C22         5.9399    2.2736   -0.0433 C.2       1 <0>         0.5217
     31 O5          5.7659    3.4738   -0.0356 O.2       1 <0>        -0.5200
     32 N3          7.1917    1.7742   -0.0580 N.am      1 <0>        -0.8509
     33 H2         -0.9594    1.9052    0.0259 H         1 <0>         0.1286
     34 H3          1.1543    3.1664    0.0076 H         1 <0>         0.1313
     35 H4          3.3375   -0.5074   -0.0328 H         1 <0>         0.1266
     36 H5          1.2194   -1.7613   -0.0189 H         1 <0>         0.1281
     37 H6         -1.0243   -1.0988    2.1188 H         1 <0>         0.1091
     38 H7         -2.3787   -1.9974    1.4061 H         1 <0>         0.1051
     39 H8          0.1776   -4.3399   -0.1532 H         1 <0>         0.4273
     40 H9         -2.0781   -2.4732   -4.2975 H         1 <0>         0.1767
     41 H10        -3.7403   -0.0406   -1.1085 H         1 <0>         0.1408
     42 H11        -4.7359    2.1154   -1.7545 H         1 <0>         0.1424
     43 H12        -2.2841    2.2070   -5.2481 H         1 <0>         0.1425
     44 H13        -1.2761    0.0570   -4.6010 H         1 <0>         0.1424
     45 H14         4.7979    0.7076    0.8500 H         1 <0>         0.0955
     46 H15         4.7806    0.7165   -0.9299 H         1 <0>         0.0957
     47 H16         7.3309    0.8143   -0.0641 H         1 <0>         0.4045
     48 H17         7.9534    2.3748   -0.0624 H         1 <0>         0.4082
@<TRIPOS>BOND
     1    1    6 ar
     2    1    2 ar
     3    1   33 1
     4    2    3 ar
     5    2   34 1
     6    3    4 ar
     7    3   28 1
     8    4    5 ar
     9    4   35 1
    10    5    6 ar
    11    5   36 1
    12    6    7 1
    13    7    8 1
    14    7   14 1
    15    7    9 1
    16    9   10 1
    17    9   37 1
    18    9   38 1
    19   10   11 2
    20   10   12 am
    21   12   13 1
    22   12   39 1
    23   13   17 1
    24   13   14 2
    25   14   15 1
    26   15   16 1
    27   15   21 1
    28   16   17 2
    29   16   40 1
    30   17   18 1
    31   18   19 2
    32   18   20 1
    33   21   26 ar
    34   21   22 ar
    35   22   23 ar
    36   22   41 1
    37   23   24 ar
    38   23   42 1
    39   24   25 ar
    40   24   27 1
    41   25   26 ar
    42   25   43 1
    43   26   44 1
    44   28   29 1
    45   29   30 1
    46   29   45 1
    47   29   46 1
    48   30   31 2
    49   30   32 am
    50   32   47 1
    51   32   48 1
@<TRIPOS>MOLECULE
ZINC04235240
   37    38     0     0     0
SMALL
USER_CHARGES
5-amino-2-[2-(4-amino-2-sulfo-phenyl)-2-oxo-ethyl]-benzenesulfonic acid
@<TRIPOS>ATOM
      1 C1          0.4966    3.7702   -0.5009 C.ar      1 <0>        -0.1674
      2 C2          1.5766    2.9520   -0.7692 C.ar      1 <0>        -0.0765
      3 C3          1.4909    1.5921   -0.5343 C.ar      1 <0>        -0.0369
      4 C4          0.3225    1.0457   -0.0352 C.ar      1 <0>        -0.6042
      5 C5         -0.7628    1.8570    0.2299 C.ar      1 <0>        -0.1035
      6 C6         -0.6803    3.2238   -0.0054 C.ar      1 <0>         0.1764
      7 N1         -1.7763    4.0474    0.2617 N.pl3     1 <0>        -0.8872
      8 S1          0.2188   -0.6880    0.2623 S.o2      1 <0>         2.6971
      9 O1         -0.1599   -1.2892   -0.9683 O.2       1 <0>        -1.0617
     10 O2          1.4044   -1.0528    0.9554 O.2       1 <0>        -1.0445
     11 C7          2.6734    0.7035   -0.8224 C.3       1 <0>        -0.1405
     12 C8          3.5050    0.5536    0.4254 C.2       1 <0>         0.4214
     13 O3          3.1703    1.1135    1.4482 O.2       1 <0>        -0.4099
     14 C9          4.7197   -0.2695    0.4032 C.ar      1 <0>        -0.1128
     15 C10         4.7110   -1.5503    0.9717 C.ar      1 <0>        -0.0498
     16 C11         5.8432   -2.3130    0.9484 C.ar      1 <0>        -0.1773
     17 C12         7.0060   -1.8197    0.3601 C.ar      1 <0>         0.1907
     18 C13         7.0189   -0.5473   -0.2065 C.ar      1 <0>        -0.1107
     19 C14         5.8896    0.2205   -0.1916 C.ar      1 <0>        -0.5916
     20 S2          5.9056    1.8274   -0.9142 S.o2      1 <0>         2.6836
     21 O4          5.5040    1.6679   -2.2679 O.2       1 <0>        -1.0512
     22 O5          5.2202    2.6852   -0.0123 O.2       1 <0>        -1.0373
     23 N2          8.1553   -2.5991    0.3383 N.pl3     1 <0>        -0.8804
     24 H1          0.5656    4.8329   -0.6804 H         1 <0>         0.1152
     25 H2          2.4905    3.3756   -1.1587 H         1 <0>         0.1280
     26 H3         -1.6748    1.4297    0.6200 H         1 <0>         0.1293
     27 H4         -2.5963    3.6653    0.6118 H         1 <0>         0.3928
     28 H5         -1.7175    5.0016    0.0970 H         1 <0>         0.3894
     29 H6          2.3505   -0.1957   -1.1178 H         1 <0>         0.0917
     30 H7          3.2792    1.1492   -1.6114 H         1 <0>         0.1145
     31 H8          3.8100   -1.9337    1.4272 H         1 <0>         0.1449
     32 H9          5.8374   -3.3002    1.3863 H         1 <0>         0.1191
     33 H10         7.9221   -0.1691   -0.6621 H         1 <0>         0.1326
     34 H11         8.1478   -3.4855    0.7322 H         1 <0>         0.3915
     35 H12         8.9656   -2.2571   -0.0709 H         1 <0>         0.3948
     36 O6         -0.9359   -0.9104    1.2286 O.3       1 <0>        -1.0867
     37 O7          7.3541    2.2938   -0.9423 O.3       1 <0>        -1.0828
@<TRIPOS>BOND
     1    1    6 ar
     2    1    2 ar
     3    1   24 1
     4    2    3 ar
     5    2   25 1
     6    3    4 ar
     7    3   11 1
     8    4    5 ar
     9    4    8 1
    10    5    6 ar
    11    5   26 1
    12    6    7 1
    13    7   27 1
    14    7   28 1
    15    8    9 2
    16    8   10 2
    17    8   36 1
    18   11   12 1
    19   11   29 1
    20   11   30 1
    21   12   13 2
    22   12   14 1
    23   14   19 ar
    24   14   15 ar
    25   15   16 ar
    26   15   31 1
    27   16   17 ar
    28   16   32 1
    29   17   18 ar
    30   17   23 1
    31   18   19 ar
    32   18   33 1
    33   19   20 1
    34   20   21 2
    35   20   22 2
    36   20   37 1
    37   23   34 1
    38   23   35 1
@<TRIPOS>MOLECULE
ZINC13277634
   50    51     0     0     0
SMALL
USER_CHARGES
3-[[4-[[2-(2-methoxyethylamino)-2-oxo-ethyl]amino]-3-nitro-phenyl]sulfonylamino]benzoic acid
@<TRIPOS>ATOM
      1 C1          7.2424   -4.2938   -9.4077 C.3       1 <0>         0.0305
      2 O1          6.5100   -3.0978   -9.1335 O.3       1 <0>        -0.3889
      3 C2          7.2875   -1.9033   -9.2383 C.3       1 <0>         0.0470
      4 C3          6.4063   -0.6922   -8.9257 C.3       1 <0>         0.1216
      5 N1          5.9733   -0.7514   -7.5274 N.am      1 <0>        -0.7197
      6 C4          5.1831    0.2181   -7.0251 C.2       1 <0>         0.5096
      7 O2          4.8306    1.1393   -7.7307 O.2       1 <0>        -0.5226
      8 C5          4.7377    0.1572   -5.5867 C.3       1 <0>         0.0854
      9 N2          3.8940    1.3169   -5.2873 N.pl3     1 <0>        -0.6981
     10 C6          3.3588    1.4794   -4.0074 C.ar      1 <0>         0.3276
     11 C7          3.7206    0.6100   -2.9860 C.ar      1 <0>        -0.2179
     12 C8          3.1937    0.7766   -1.7206 C.ar      1 <0>         0.0780
     13 C9          2.2980    1.8008   -1.4721 C.ar      1 <0>        -0.7340
     14 C10         1.9358    2.6679   -2.4864 C.ar      1 <0>         0.0993
     15 C11         2.4635    2.5103   -3.7531 C.ar      1 <0>        -0.1402
     16 N3          2.0749    3.4386   -4.8383 N.pl3     1 <0>         0.0491
     17 O3          1.2074    4.2716   -4.6457 O.2       1 <0>        -0.1458
     18 O4          2.6225    3.3696   -5.9241 O.3       1 <0>        -0.1908
     19 S1          1.6225    2.0055    0.1423 S.o2      1 <0>         2.7017
     20 O5          1.2349    3.3683    0.2506 O.2       1 <0>        -0.9535
     21 O6          2.5373    1.3996    1.0452 O.2       1 <0>        -0.9447
     22 N4          0.2304    1.1109    0.2076 N.pl3     1 <0>        -1.0483
     23 C12         0.2888   -0.2809    0.1008 C.ar      1 <0>         0.1103
     24 C13         1.2440   -0.9936    0.8167 C.ar      1 <0>        -0.1565
     25 C14         1.3057   -2.3706    0.7149 C.ar      1 <0>        -0.1190
     26 C15         0.4193   -3.0478   -0.0978 C.ar      1 <0>        -0.0806
     27 C16        -0.5440   -2.3417   -0.8211 C.ar      1 <0>        -0.0973
     28 C17        -0.6094   -0.9518   -0.7146 C.ar      1 <0>        -0.0908
     29 C18        -1.4941   -3.0640   -1.6919 C.2       1 <0>         0.4880
     30 O7         -2.3312   -2.4476   -2.3202 O.co2     1 <0>        -0.6284
     31 H1          6.5821   -5.1553   -9.3071 H         1 <0>         0.0896
     32 H2          7.6357   -4.2542  -10.4234 H         1 <0>         0.0427
     33 H3          8.0678   -4.3844   -8.7016 H         1 <0>         0.0429
     34 H4          7.6818   -1.8141  -10.2506 H         1 <0>         0.0693
     35 H5          8.1139   -1.9443   -8.5288 H         1 <0>         0.0584
     36 H6          5.5326   -0.7007   -9.5773 H         1 <0>         0.0810
     37 H7          6.9745    0.2230   -9.0917 H         1 <0>         0.0868
     38 H8          6.2553   -1.4882   -6.9631 H         1 <0>         0.4073
     39 H9          5.6114    0.1657   -4.9351 H         1 <0>         0.1053
     40 H10         4.1695   -0.7580   -5.4207 H         1 <0>         0.1088
     41 H11         3.7070    1.9718   -5.9780 H         1 <0>         0.4333
     42 H12         4.4166   -0.1927   -3.1804 H         1 <0>         0.1550
     43 H13         3.4781    0.1040   -0.9249 H         1 <0>         0.1604
     44 H14         1.2398    3.4695   -2.2879 H         1 <0>         0.1692
     45 H15        -0.6259    1.5535    0.3160 H         1 <0>         0.4267
     46 H16         1.9400   -0.4695    1.4548 H         1 <0>         0.1515
     47 H17         2.0500   -2.9187    1.2735 H         1 <0>         0.1254
     48 H18         0.4704   -4.1239   -0.1740 H         1 <0>         0.1339
     49 H19        -1.3548   -0.4004   -1.2685 H         1 <0>         0.1322
     50 O8         -1.4321   -4.4061   -1.7890 O.co2     1 <0>        -0.7506
@<TRIPOS>BOND
     1    1    2 1
     2    1   31 1
     3    1   32 1
     4    1   33 1
     5    2    3 1
     6    3    4 1
     7    3   34 1
     8    3   35 1
     9    4    5 1
    10    4   36 1
    11    4   37 1
    12    5    6 am
    13    5   38 1
    14    6    7 2
    15    6    8 1
    16    8    9 1
    17    8   39 1
    18    8   40 1
    19    9   10 1
    20    9   41 1
    21   10   15 ar
    22   10   11 ar
    23   11   12 ar
    24   11   42 1
    25   12   13 ar
    26   12   43 1
    27   13   14 ar
    28   13   19 1
    29   14   15 ar
    30   14   44 1
    31   15   16 1
    32   16   17 2
    33   16   18 1
    34   19   20 2
    35   19   21 2
    36   19   22 1
    37   22   23 1
    38   22   45 1
    39   23   28 ar
    40   23   24 ar
    41   24   25 ar
    42   24   46 1
    43   25   26 ar
    44   25   47 1
    45   26   27 ar
    46   26   48 1
    47   27   28 ar
    48   27   29 1
    49   28   49 1
    50   29   30 2
    51   29   50 1
@<TRIPOS>MOLECULE
ZINC16958170
   55    57     0     0     0
SMALL
USER_CHARGES
methyl (2E,3S)-5-(2-ethoxyanilino)-2-hydrazono-3-(6-nitro-3-oxo-4H-quinoxalin-2-yl)-4,5-dioxo-pentanoate
@<TRIPOS>ATOM
      1 C1          0.9966    3.1059    1.4022 C.3       1 <0>        -0.1565
      2 C2          1.2263    1.6709    0.9237 C.3       1 <0>         0.0568
      3 O1         -0.0128    1.1114    0.4838 O.3       1 <0>        -0.3161
      4 C3          0.0162   -0.1676    0.0238 C.ar      1 <0>         0.1029
      5 C4          1.2118   -0.8670   -0.0089 C.ar      1 <0>        -0.1899
      6 C5          1.2388   -2.1693   -0.4720 C.ar      1 <0>        -0.1022
      7 C6          0.0764   -2.7749   -0.9136 C.ar      1 <0>        -0.1348
      8 C7         -1.1193   -2.0832   -0.8899 C.ar      1 <0>        -0.0992
      9 C8         -1.1558   -0.7769   -0.4215 C.ar      1 <0>         0.1286
     10 N1         -2.3644   -0.0744   -0.3968 N.am      1 <0>        -0.6520
     11 C9         -3.5324   -0.7445   -0.3420 C.2       1 <0>         0.4916
     12 O2         -3.5341   -1.9526   -0.2208 O.2       1 <0>        -0.5007
     13 C10        -4.8212   -0.0031   -0.4301 C.2       1 <0>         0.3742
     14 O3         -4.8206    1.1861   -0.6416 O.2       1 <0>        -0.3711
     15 C11        -6.1260   -0.7367   -0.2555 C.3       1 <0>         0.0016
     16 H1         -5.9812   -1.5845    0.4303 H         1 <0>         0.1199
     17 C12        -7.1571    0.2016    0.3166 C.ar      1 <0>         0.0634
     18 C13        -6.9816    0.7442    1.6682 C.ar      1 <0>         0.4628
     19 O4         -6.0066    0.4414    2.3320 O.3       1 <0>        -0.5789
     20 N2         -7.9146    1.5842    2.1675 N.ar      1 <0>        -0.6126
     21 C14        -9.0077    1.9076    1.3890 C.ar      1 <0>         0.1634
     22 C15        -9.9859    2.7706    1.8743 C.ar      1 <0>        -0.0559
     23 C16       -11.0722    3.0866    1.0883 C.ar      1 <0>        -0.0145
     24 C17       -11.1998    2.5504   -0.1866 C.ar      1 <0>        -0.1491
     25 C18       -10.2535    1.7026   -0.6829 C.ar      1 <0>        -0.0284
     26 C19        -9.1368    1.3643    0.0972 C.ar      1 <0>        -0.0002
     27 N3         -8.1980    0.5320   -0.3926 N.ar      1 <0>        -0.4057
     28 N4        -12.1114    4.0045    1.6064 N.pl3     1 <0>         0.0361
     29 O5        -13.0738    4.2870    0.9154 O.2       1 <0>        -0.1754
     30 O6        -12.0041    4.4774    2.7237 O.3       1 <0>        -0.1752
     31 C20        -6.5981   -1.2472   -1.5925 C.2       1 <0>        -0.0460
     32 N5         -6.8689   -2.5127   -1.7482 N.2       1 <0>        -0.0997
     33 N6         -6.8444   -3.3074   -0.7324 N.pl3     1 <0>        -0.6923
     34 C21        -6.7523   -0.3236   -2.7142 C.2       1 <0>         0.5418
     35 O7         -6.4161    0.8393   -2.5951 O.2       1 <0>        -0.4888
     36 O8         -7.2677   -0.7607   -3.8820 O.3       1 <0>        -0.3466
     37 C22        -7.3899    0.1966   -4.9359 C.3       1 <0>         0.0344
     38 H2          1.9505    3.5366    1.7408 H         1 <0>         0.0784
     39 H3          0.2787    3.1040    2.2356 H         1 <0>         0.0697
     40 H4          0.5955    3.7087    0.5741 H         1 <0>         0.0680
     41 H5          1.9442    1.6728    0.0903 H         1 <0>         0.0616
     42 H6          1.6274    1.0680    1.7517 H         1 <0>         0.0624
     43 H7          2.1223   -0.3959    0.3309 H         1 <0>         0.1301
     44 H8          2.1711   -2.7141   -0.4928 H         1 <0>         0.1241
     45 H9          0.1035   -3.7911   -1.2782 H         1 <0>         0.1266
     46 H10        -2.0253   -2.5584   -1.2360 H         1 <0>         0.1528
     47 H11        -2.3620    1.0253   -0.4221 H         1 <0>         0.4520
     48 H12        -9.8938    3.1912    2.8648 H         1 <0>         0.1496
     49 H13       -12.0569    2.8077   -0.7913 H         1 <0>         0.1413
     50 H14       -10.3636    1.2916   -1.6756 H         1 <0>         0.1361
     51 H15        -7.0729   -4.3753   -0.8639 H         1 <0>         0.4528
     52 H16        -6.5950   -2.9171    0.2653 H         1 <0>         0.3974
     53 H17        -7.8207   -0.2888   -5.8240 H         1 <0>         0.0970
     54 H18        -6.3962    0.5984   -5.1833 H         1 <0>         0.0549
     55 H19        -8.0468    1.0171   -4.6116 H         1 <0>         0.0594
@<TRIPOS>BOND
     1    1    2 1
     2    1   38 1
     3    1   39 1
     4    1   40 1
     5    2    3 1
     6    2   41 1
     7    2   42 1
     8    3    4 1
     9    4    9 ar
    10    4    5 ar
    11    5    6 ar
    12    5   43 1
    13    6    7 ar
    14    6   44 1
    15    7    8 ar
    16    7   45 1
    17    8    9 ar
    18    8   46 1
    19    9   10 1
    20   10   11 am
    21   10   47 1
    22   11   12 2
    23   11   13 1
    24   13   14 2
    25   13   15 1
    26   15   16 1
    27   15   17 1
    28   15   31 1
    29   17   27 ar
    30   17   18 ar
    31   18   19 1
    32   18   20 ar
    33   20   21 ar
    34   21   26 ar
    35   21   22 ar
    36   22   23 ar
    37   22   48 1
    38   23   24 ar
    39   23   28 1
    40   24   25 ar
    41   24   49 1
    42   25   26 ar
    43   25   50 1
    44   26   27 ar
    45   28   29 2
    46   28   30 1
    47   31   32 2
    48   31   34 1
    49   32   33 1
    50   33   51 1
    51   33   52 1
    52   34   35 2
    53   34   36 1
    54   36   37 1
    55   37   53 1
    56   37   54 1
    57   37   55 1
@<TRIPOS>MOLECULE
ZINC13543162
   68    70     0     0     0
SMALL
USER_CHARGES

@<TRIPOS>ATOM
      1 C1          1.3942    1.5323    1.5371 C.3       1 <0>        -0.1693
      2 C2          1.1449    0.0647    1.1455 C.3       1 <0>         0.1648
      3 C3         -0.1840   -0.0256    0.4051 C.3       1 <0>        -0.2079
      4 C4         -1.2849   -0.5871    1.2852 C.2       1 <0>         0.3570
      5 O1         -2.4013   -0.1406    1.2370 O.2       1 <0>        -0.4244
      6 C5         -0.8638   -1.7320    2.1768 C.3       1 <0>         0.0882
      7 C6         -2.0126   -2.4287    2.8839 C.3       1 <0>         0.0068
      8 C7         -2.9420   -3.0638    1.8353 C.3       1 <0>         0.1130
      9 H1         -3.3884   -2.2723    1.2328 H         1 <0>         0.0539
     10 C8         -4.0498   -3.8464    2.5437 C.3       1 <0>        -0.1529
     11 C9         -3.4219   -5.0046    3.3138 C.3       1 <0>        -0.1025
     12 C10        -2.4284   -4.4952    4.3641 C.3       1 <0>        -0.0405
     13 C11        -1.4305   -3.5272    3.7674 C.3       1 <0>        -0.0492
     14 H2         -0.8064   -4.1555    3.0689 H         1 <0>         0.0978
     15 C12        -0.4321   -2.9733    4.7710 C.3       1 <0>         0.1100
     16 H3          0.0194   -3.8184    5.3235 H         1 <0>         0.0657
     17 C13         0.7169   -2.2617    4.0548 C.3       1 <0>         0.0720
     18 H4          1.2938   -3.0009    3.4873 H         1 <0>         0.1020
     19 C14         0.2238   -1.1812    3.0965 C.3       1 <0>         0.1322
     20 O2          1.3088   -0.7798    2.2577 O.3       1 <0>        -0.3720
     21 C15        -0.2240    0.0430    3.8903 C.3       1 <0>        -0.1887
     22 O3          1.5825   -1.6655    5.0285 O.3       1 <0>        -0.3432
     23 C16         2.5979   -2.4168    5.4826 C.2       1 <0>         0.4571
     24 O4          2.7487   -3.5421    5.0692 O.2       1 <0>        -0.5060
     25 C17         3.5497   -1.8568    6.5080 C.3       1 <0>        -0.0836
     26 C18         4.6058   -2.9091    6.8518 C.3       1 <0>        -0.1717
     27 C19         5.5577   -2.3491    7.8772 C.2       1 <0>         0.4930
     28 O5          5.4054   -1.2136    8.2944 O.co2     1 <0>        -0.6981
     29 O6          6.4800   -3.0316    8.2897 O.co2     1 <0>        -0.6985
     30 O7         -1.0195   -2.1112    5.7369 O.3       1 <0>        -0.5455
     31 C20        -1.6560   -5.7421    4.8621 C.3       1 <0>        -0.1515
     32 C21        -3.1971   -3.9376    5.5589 C.3       1 <0>        -0.1453
     33 O8         -2.2211   -3.9589    0.9911 O.3       1 <0>        -0.5347
     34 C22        -2.8613   -1.4389    3.6854 C.3       1 <0>        -0.1781
     35 O9         -0.2036   -2.6994    1.3212 O.3       1 <0>        -0.5134
     36 C23         2.2370   -0.2944    0.1386 C.2       1 <0>        -0.1794
     37 C24         3.0742   -1.2677    0.3996 C.2       1 <0>        -0.1571
     38 H5          2.4110    1.6398    1.9148 H         1 <0>         0.0725
     39 H6          1.2623    2.1691    0.6624 H         1 <0>         0.0676
     40 H7          0.6859    1.8271    2.3113 H         1 <0>         0.0628
     41 H8         -0.4788    0.9699    0.0576 H         1 <0>         0.1072
     42 H9         -0.0688   -0.6706   -0.4733 H         1 <0>         0.1142
     43 H10        -4.6350   -3.2150    3.1970 H         1 <0>         0.0774
     44 H11        -4.7218   -4.2594    1.7781 H         1 <0>         0.0576
     45 H12        -4.2093   -5.5714    3.8180 H         1 <0>         0.0596
     46 H13        -2.9024   -5.6689    2.6215 H         1 <0>         0.0690
     47 H14        -0.9612   -0.2567    4.6352 H         1 <0>         0.1009
     48 H15         0.6371    0.4872    4.3895 H         1 <0>         0.0863
     49 H16        -0.6678    0.7727    3.2131 H         1 <0>         0.0510
     50 H17         4.0383   -0.9701    6.1042 H         1 <0>         0.1050
     51 H18         2.9972   -1.5888    7.4085 H         1 <0>         0.1045
     52 H19         4.1172   -3.7958    7.2557 H         1 <0>         0.0655
     53 H20         5.1584   -3.1771    5.9513 H         1 <0>         0.0659
     54 H21        -0.3912   -1.7543    6.3794 H         1 <0>         0.3815
     55 H22        -1.1380   -6.2076    4.0235 H         1 <0>         0.0550
     56 H23        -0.9290   -5.4417    5.6166 H         1 <0>         0.0557
     57 H24        -2.3573   -6.4544    5.2966 H         1 <0>         0.0555
     58 H25        -3.8092   -4.7258    5.9971 H         1 <0>         0.0455
     59 H26        -2.4924   -3.5682    6.3040 H         1 <0>         0.0743
     60 H27        -3.8386   -3.1204    5.2290 H         1 <0>         0.0571
     61 H28        -2.7645   -4.3841    0.3135 H         1 <0>         0.3646
     62 H29        -3.1311   -0.5946    3.0509 H         1 <0>         0.0700
     63 H30        -3.7669   -1.9356    4.0337 H         1 <0>         0.0717
     64 H31        -2.2904   -1.0814    4.5424 H         1 <0>         0.0976
     65 H32         0.5773   -2.3545    0.8670 H         1 <0>         0.3694
     66 H33         2.3187    0.2541   -0.7881 H         1 <0>         0.1228
     67 H34         2.9925   -1.8163    1.3263 H         1 <0>         0.1122
     68 H35         3.8460   -1.5215   -0.3119 H         1 <0>         0.1002
@<TRIPOS>BOND
     1    1    2 1
     2    1   38 1
     3    1   39 1
     4    1   40 1
     5    2   20 1
     6    2    3 1
     7    2   36 1
     8    3    4 1
     9    3   41 1
    10    3   42 1
    11    4    5 2
    12    4    6 1
    13    6   19 1
    14    6    7 1
    15    6   35 1
    16    7   13 1
    17    7    8 1
    18    7   34 1
    19    8    9 1
    20    8   10 1
    21    8   33 1
    22   10   11 1
    23   10   43 1
    24   10   44 1
    25   11   12 1
    26   11   45 1
    27   11   46 1
    28   12   13 1
    29   12   31 1
    30   12   32 1
    31   13   14 1
    32   13   15 1
    33   15   16 1
    34   15   17 1
    35   15   30 1
    36   17   18 1
    37   17   19 1
    38   17   22 1
    39   19   20 1
    40   19   21 1
    41   21   47 1
    42   21   48 1
    43   21   49 1
    44   22   23 1
    45   23   24 2
    46   23   25 1
    47   25   26 1
    48   25   50 1
    49   25   51 1
    50   26   27 1
    51   26   52 1
    52   26   53 1
    53   27   28 2
    54   27   29 1
    55   30   54 1
    56   31   55 1
    57   31   56 1
    58   31   57 1
    59   32   58 1
    60   32   59 1
    61   32   60 1
    62   33   61 1
    63   34   62 1
    64   34   63 1
    65   34   64 1
    66   35   65 1
    67   36   37 2
    68   36   66 1
    69   37   67 1
    70   37   68 1
@<TRIPOS>MOLECULE
ZINC59773972
   46    48     0     0     0
SMALL
USER_CHARGES

@<TRIPOS>ATOM
      1 C1          0.0123    1.4300   -0.0609 C.ar      1 <0>        -0.0529
      2 C2          1.2015    2.1199   -0.2106 C.ar      1 <0>        -0.2113
      3 C3          2.4049    1.4401   -0.2077 C.ar      1 <0>        -0.0772
      4 C4          2.4224    0.0619   -0.0548 C.ar      1 <0>         0.0461
      5 C5          1.2234   -0.6341    0.0962 C.ar      1 <0>         0.3021
      6 C6          0.0200    0.0566    0.0925 C.ar      1 <0>        -0.2517
      7 N1          1.2339   -2.0236    0.2504 N.2       1 <0>        -1.0537
      8 S1         -0.1914   -2.8476    0.4295 S.o2      1 <0>         2.6006
      9 O1         -0.7437   -2.4381    1.6731 O.2       1 <0>        -1.0236
     10 O2         -0.8951   -2.7133   -0.7977 O.2       1 <0>        -1.0225
     11 C7          0.2112   -4.5549    0.5950 C.ar      1 <0>        -0.6209
     12 C8          0.3017   -5.3552   -0.5303 C.ar      1 <0>         0.0117
     13 C9          0.6177   -6.6965   -0.4092 C.ar      1 <0>        -0.1493
     14 C10         0.8444   -7.2452    0.8364 C.ar      1 <0>        -0.0473
     15 C11         0.7548   -6.4437    1.9753 C.ar      1 <0>        -0.1675
     16 C12         0.4411   -5.0897    1.8455 C.ar      1 <0>         0.0426
     17 C13         0.9961   -7.0251    3.3131 C.2       1 <0>         0.5742
     18 O3          0.9173   -6.3246    4.3034 O.2       1 <0>        -0.5198
     19 N2          1.3033   -8.3317    3.4346 N.am      1 <0>        -0.7321
     20 C14         1.5424   -8.9077    4.7603 C.3       1 <0>         0.0787
     21 C15         1.8694  -10.3956    4.6184 C.3       1 <0>         0.4488
     22 F1          3.0151  -10.5482    3.8301 F         1 <0>        -0.1771
     23 F2          2.0977  -10.9457    5.8842 F         1 <0>        -0.1724
     24 F3          0.7945  -11.0535    4.0110 F         1 <0>        -0.1781
     25 N3          3.6426   -0.6301   -0.0525 N.pl3     1 <0>        -0.2833
     26 C16         4.7397   -0.2955    0.6630 C.2       1 <0>         0.4176
     27 C17         5.7203   -1.2413    0.3750 C.2       1 <0>        -0.2827
     28 C18         5.1561   -2.1550   -0.5454 C.2       1 <0>         0.0932
     29 N4          3.9283   -1.7870   -0.7855 N.2       1 <0>        -0.2355
     30 C19         7.0483   -1.2810    0.9091 C.1       1 <0>         0.3131
     31 N5          8.1019   -1.3125    1.3328 N.1       1 <0>        -0.4807
     32 N6          4.8648    0.7827    1.5184 N.pl3     1 <0>        -0.8421
     33 H1         -0.9250    1.9666   -0.0594 H         1 <0>         0.1116
     34 H2          1.1898    3.1932   -0.3306 H         1 <0>         0.1145
     35 H3          3.3316    1.9822   -0.3249 H         1 <0>         0.1139
     36 H4         -0.9105   -0.4790    0.2095 H         1 <0>         0.1074
     37 H5          0.1244   -4.9307   -1.5075 H         1 <0>         0.1447
     38 H6          0.6867   -7.3156   -1.2914 H         1 <0>         0.1367
     39 H7          1.0903   -8.2927    0.9297 H         1 <0>         0.1269
     40 H8          0.3746   -4.4631    2.7227 H         1 <0>         0.1499
     41 H9          1.3661   -8.8907    2.6444 H         1 <0>         0.4068
     42 H10         2.3799   -8.3952    5.2335 H         1 <0>         0.1177
     43 H11         0.6497   -8.7889    5.3744 H         1 <0>         0.1171
     44 H12         5.6549   -3.0124   -0.9726 H         1 <0>         0.1844
     45 H13         4.0932    1.3355    1.7181 H         1 <0>         0.4080
     46 H14         5.7243    0.9868    1.9191 H         1 <0>         0.4134
@<TRIPOS>BOND
     1    1    6 ar
     2    1    2 ar
     3    1   33 1
     4    2    3 ar
     5    2   34 1
     6    3    4 ar
     7    3   35 1
     8    4    5 ar
     9    4   25 1
    10    5    6 ar
    11    5    7 1
    12    6   36 1
    13    7    8 1
    14    8    9 2
    15    8   10 2
    16    8   11 1
    17   11   16 ar
    18   11   12 ar
    19   12   13 ar
    20   12   37 1
    21   13   14 ar
    22   13   38 1
    23   14   15 ar
    24   14   39 1
    25   15   16 ar
    26   15   17 1
    27   16   40 1
    28   17   18 2
    29   17   19 am
    30   19   20 1
    31   19   41 1
    32   20   21 1
    33   20   42 1
    34   20   43 1
    35   21   22 1
    36   21   23 1
    37   21   24 1
    38   25   29 1
    39   25   26 1
    40   26   27 2
    41   26   32 1
    42   27   28 1
    43   27   30 1
    44   28   29 2
    45   28   44 1
    46   30   31 3
    47   32   45 1
    48   32   46 1
@<TRIPOS>MOLECULE
ZINC02742375
   45    46     0     0     0
SMALL
USER_CHARGES
6-[(5-carbamoyl-3-ethoxycarbonyl-4-methyl-2-thienyl)carbamoyl]cyclohex-3-ene-1-carboxylic acid
@<TRIPOS>ATOM
      1 C1         -4.4245    5.7357    2.5854 C.3       1 <0>        -0.1521
      2 C2         -4.3295    5.1744    1.1653 C.3       1 <0>         0.0570
      3 O1         -4.0656    3.7478    1.2254 O.3       1 <0>        -0.3496
      4 C3         -3.9524    3.0962    0.0503 C.2       1 <0>         0.5399
      5 O2         -4.0712    3.7042   -0.9960 O.2       1 <0>        -0.4938
      6 C4         -3.6860    1.6535    0.0342 C.2       1 <0>        -0.2533
      7 C5         -4.7231    0.7326    0.0295 C.2       1 <0>         0.0324
      8 C6         -4.3939   -0.5954    0.0210 C.2       1 <0>        -0.3286
      9 S1         -2.6116   -0.5578    0.0120 S.3       1 <0>         0.3036
     10 C7         -2.3773    1.1596    0.0196 C.2       1 <0>         0.1365
     11 N1         -1.1906    1.8664    0.0178 N.am      1 <0>        -0.6219
     12 C8         -0.0144    1.2085    0.0087 C.2       1 <0>         0.5213
     13 O3          0.0021   -0.0041    0.0020 O.2       1 <0>        -0.4426
     14 C9          1.2803    1.9796    0.0005 C.3       1 <0>        -0.0765
     15 H1          1.3273    2.6073   -0.8895 H         1 <0>         0.1040
     16 C10         1.3655    2.8552    1.2525 C.3       1 <0>        -0.0825
     17 C11         2.7479    3.4216    1.3942 C.2       1 <0>        -0.1710
     18 C12         3.7873    2.9610    0.7754 C.2       1 <0>        -0.1362
     19 C13         3.7533    1.8027   -0.1783 C.3       1 <0>        -0.0738
     20 C14         2.4627    1.0024    0.0105 C.3       1 <0>        -0.1119
     21 H2          2.4942    0.4753    0.9641 H         1 <0>         0.0781
     22 C15         2.3113    0.0125   -1.1156 C.2       1 <0>         0.4777
     23 O4          1.3567    0.0781   -1.8534 O.co2     1 <0>        -0.6297
     24 C16        -5.2840   -1.7582    0.0196 C.2       1 <0>         0.6216
     25 O5         -6.4910   -1.6007    0.0270 O.2       1 <0>        -0.5393
     26 N2         -4.7668   -3.0027    0.0100 N.am      1 <0>        -0.8503
     27 C17        -6.1624    1.1791    0.0387 C.3       1 <0>        -0.1128
     28 H3         -5.2345    5.2386    3.1192 H         1 <0>         0.0670
     29 H4         -3.4842    5.5619    3.1085 H         1 <0>         0.0672
     30 H5         -4.6226    6.8066    2.5403 H         1 <0>         0.0792
     31 H6         -3.5196    5.6715    0.6315 H         1 <0>         0.0705
     32 H7         -5.2699    5.3482    0.6422 H         1 <0>         0.0705
     33 H8         -1.2037    2.8363    0.0232 H         1 <0>         0.4164
     34 H9          0.6472    3.6712    1.1723 H         1 <0>         0.0698
     35 H10         1.1320    2.2534    2.1308 H         1 <0>         0.0766
     36 H11         2.8840    4.2664    2.0531 H         1 <0>         0.1038
     37 H12         4.7381    3.4401    0.9564 H         1 <0>         0.1028
     38 H13         3.8012    2.1756   -1.2014 H         1 <0>         0.0728
     39 H14         4.6102    1.1555    0.0087 H         1 <0>         0.0836
     40 H15        -3.8050   -3.1282    0.0040 H         1 <0>         0.4023
     41 H16        -5.3564   -3.7730    0.0090 H         1 <0>         0.4071
     42 H17        -6.5044    1.2817    1.0686 H         1 <0>         0.0786
     43 H18        -6.2483    2.1392   -0.4701 H         1 <0>         0.0586
     44 H19        -6.7757    0.4392   -0.4757 H         1 <0>         0.0973
     45 O6          3.2369   -0.9422   -1.2989 O.co2     1 <0>        -0.7701
@<TRIPOS>BOND
     1    1    2 1
     2    1   28 1
     3    1   29 1
     4    1   30 1
     5    2    3 1
     6    2   31 1
     7    2   32 1
     8    3    4 1
     9    4    5 2
    10    4    6 1
    11    6   10 2
    12    6    7 1
    13    7    8 2
    14    7   27 1
    15    8    9 1
    16    8   24 1
    17    9   10 1
    18   10   11 1
    19   11   12 am
    20   11   33 1
    21   12   13 2
    22   12   14 1
    23   14   15 1
    24   14   20 1
    25   14   16 1
    26   16   17 1
    27   16   34 1
    28   16   35 1
    29   17   18 2
    30   17   36 1
    31   18   19 1
    32   18   37 1
    33   19   20 1
    34   19   38 1
    35   19   39 1
    36   20   21 1
    37   20   22 1
    38   22   23 2
    39   22   45 1
    40   24   25 2
    41   24   26 am
    42   26   40 1
    43   26   41 1
    44   27   42 1
    45   27   43 1
    46   27   44 1
@<TRIPOS>MOLECULE
ZINC13346067
   43    44     0     0     0
SMALL
USER_CHARGES
4-chloro-3-[[(4-ethylamino-3-nitro-benzoyl)amino]sulfamoyl]benzoic acid
@<TRIPOS>ATOM
      1 C1         -0.7851    0.9840    1.1725 C.3       1 <0>        -0.1674
      2 C2         -0.6353   -0.5259    0.9756 C.3       1 <0>         0.1046
      3 N1         -1.9579   -1.1276    0.7887 N.pl3     1 <0>        -0.7177
      4 C3         -2.0761   -2.4987    0.5900 C.ar      1 <0>         0.3036
      5 C4         -0.9330   -3.2879    0.4940 C.ar      1 <0>        -0.1974
      6 C5         -1.0466   -4.6450    0.2978 C.ar      1 <0>         0.0102
      7 C6         -2.3117   -5.2314    0.1949 C.ar      1 <0>        -0.1863
      8 C7         -3.4573   -4.4365    0.2917 C.ar      1 <0>         0.0545
      9 C8         -3.3370   -3.0803    0.4933 C.ar      1 <0>        -0.1296
     10 N2         -4.5497   -2.2386    0.6015 N.pl3     1 <0>         0.0404
     11 O1         -5.5322   -2.6584    1.1863 O.2       1 <0>        -0.1421
     12 O2         -4.5651   -1.1261    0.1058 O.3       1 <0>        -0.1835
     13 C9         -2.4371   -6.6861   -0.0159 C.2       1 <0>         0.5758
     14 O3         -3.5379   -7.1948   -0.1052 O.2       1 <0>        -0.5145
     15 N3         -1.3315   -7.4512   -0.1095 N.am      1 <0>        -0.5041
     16 N4         -1.4506   -8.8327   -0.3097 N.pl3     1 <0>        -0.8984
     17 S1         -0.7068   -9.5489   -1.6044 S.o2      1 <0>         2.6941
     18 O4         -0.7909  -10.9520   -1.3960 O.2       1 <0>        -0.9275
     19 O5         -1.2234   -8.9194   -2.7689 O.2       1 <0>        -0.9341
     20 C10         1.0024   -9.1289   -1.5211 C.ar      1 <0>        -0.6936
     21 C11         1.5708   -8.3586   -2.5137 C.ar      1 <0>         0.0236
     22 C12         2.9245   -8.0227   -2.4437 C.ar      1 <0>        -0.1230
     23 C13         3.6969   -8.4786   -1.3729 C.ar      1 <0>        -0.0086
     24 C14         3.1182   -9.2524   -0.3895 C.ar      1 <0>        -0.1399
     25 C15         1.7735   -9.5780   -0.4619 C.ar      1 <0>         0.0460
     26 Cl1         1.0520  -10.5523    0.7806 Cl        1 <0>        -0.0568
     27 C16         3.5381   -7.1936   -3.5004 C.2       1 <0>         0.4883
     28 O6          2.8640   -6.7984   -4.4305 O.co2     1 <0>        -0.6169
     29 H1          0.1989    1.4317    1.3115 H         1 <0>         0.0810
     30 H2         -1.2616    1.4194    0.2941 H         1 <0>         0.0678
     31 H3         -1.3995    1.1765    2.0520 H         1 <0>         0.0630
     32 H4         -0.0210   -0.7184    0.0960 H         1 <0>         0.0776
     33 H5         -0.1588   -0.9613    1.8539 H         1 <0>         0.0731
     34 H6         -2.7511   -0.5695    0.8036 H         1 <0>         0.4148
     35 H7          0.0439   -2.8344    0.5739 H         1 <0>         0.1555
     36 H8         -0.1596   -5.2566    0.2238 H         1 <0>         0.1465
     37 H9         -4.4358   -4.8866    0.2126 H         1 <0>         0.1623
     38 H10        -0.4534   -7.0454   -0.0382 H         1 <0>         0.4202
     39 H11        -1.9688   -9.3697    0.3100 H         1 <0>         0.4291
     40 H12         0.9694   -8.0125   -3.3413 H         1 <0>         0.1597
     41 H13         4.7453   -8.2258   -1.3156 H         1 <0>         0.1521
     42 H14         3.7144   -9.6058    0.4387 H         1 <0>         0.1414
     43 O7          4.8454   -6.8754   -3.4328 O.co2     1 <0>        -0.7437
@<TRIPOS>BOND
     1    1    2 1
     2    1   29 1
     3    1   30 1
     4    1   31 1
     5    2    3 1
     6    2   32 1
     7    2   33 1
     8    3    4 1
     9    3   34 1
    10    4    9 ar
    11    4    5 ar
    12    5    6 ar
    13    5   35 1
    14    6    7 ar
    15    6   36 1
    16    7    8 ar
    17    7   13 1
    18    8    9 ar
    19    8   37 1
    20    9   10 1
    21   10   11 2
    22   10   12 1
    23   13   14 2
    24   13   15 am
    25   15   16 1
    26   15   38 1
    27   16   17 1
    28   16   39 1
    29   17   18 2
    30   17   19 2
    31   17   20 1
    32   20   25 ar
    33   20   21 ar
    34   21   22 ar
    35   21   40 1
    36   22   23 ar
    37   22   27 1
    38   23   24 ar
    39   23   41 1
    40   24   25 ar
    41   24   42 1
    42   25   26 1
    43   27   28 2
    44   27   43 1
@<TRIPOS>MOLECULE
ZINC26948436
   41    42     0     0     0
SMALL
USER_CHARGES
1-[[4-(allylamino)-6-methyl-1,3,5-triazin-2-yl]amino]-3-(2-chlorophenyl)sulfonyl-urea
@<TRIPOS>ATOM
      1 C1         -2.9368   -2.6027    0.4472 C.3       1 <0>        -0.0839
      2 C2         -1.5985   -1.9205    0.3267 C.ar      1 <0>         0.4249
      3 N1         -0.4941   -2.6432    0.2579 N.ar      1 <0>        -0.6567
      4 C3          0.6898   -2.0443    0.1518 C.ar      1 <0>         0.6319
      5 N2          0.7600   -0.7181    0.1096 N.ar      1 <0>        -0.6614
      6 C4         -0.3518    0.0050    0.1845 C.ar      1 <0>         0.6227
      7 N3         -1.5322   -0.6013    0.2905 N.ar      1 <0>        -0.6487
      8 N4         -0.2837    1.3828    0.1469 N.pl3     1 <0>        -0.4505
      9 N5         -1.4577    2.1443    0.2144 N.pl3     1 <0>        -0.5242
     10 C5         -1.3911    3.4899    0.1776 C.2       1 <0>         0.7123
     11 O1         -2.4100    4.1508    0.2362 O.3       1 <0>        -0.6422
     12 N6         -0.1952    4.1029    0.0759 N.2       1 <0>        -1.1015
     13 S1         -0.1199    5.7488   -0.0911 S.o2      1 <0>         2.6481
     14 O2         -0.9245    6.2991    0.9428 O.2       1 <0>        -1.0156
     15 O3          1.2536    6.0790   -0.2450 O.2       1 <0>        -0.9822
     16 C6         -0.9091    6.1546   -1.6134 C.ar      1 <0>        -0.6460
     17 C7         -2.0642    6.9138   -1.6123 C.ar      1 <0>        -0.0053
     18 C8         -2.6810    7.2358   -2.8067 C.ar      1 <0>        -0.1466
     19 C9         -2.1483    6.7908   -4.0024 C.ar      1 <0>        -0.0775
     20 C10        -0.9965    6.0273   -4.0044 C.ar      1 <0>        -0.1438
     21 C11        -0.3759    5.7086   -2.8094 C.ar      1 <0>         0.0512
     22 Cl1         1.0708    4.7491   -2.8110 Cl        1 <0>        -0.0428
     23 N7          1.8423   -2.7998    0.0795 N.pl3     1 <0>        -0.6997
     24 C12         3.1448   -2.1396   -0.0372 C.3       1 <0>         0.1657
     25 C13         4.2323   -3.1812   -0.0978 C.2       1 <0>        -0.1759
     26 C14         5.0805   -3.1853   -1.0961 C.2       1 <0>        -0.1709
     27 H1         -2.7925   -3.6931    0.4616 H         1 <0>         0.0841
     28 H2         -3.5672   -2.3275   -0.4112 H         1 <0>         0.0869
     29 H3         -3.4275   -2.2854    1.3792 H         1 <0>         0.0873
     30 H4          0.6924    1.8831    0.0639 H         1 <0>         0.4795
     31 H5         -2.4338    1.6440    0.2974 H         1 <0>         0.4452
     32 H6         -2.4831    7.2583   -0.6784 H         1 <0>         0.1439
     33 H7         -3.5816    7.8319   -2.8056 H         1 <0>         0.1282
     34 H8         -2.6328    7.0395   -4.9351 H         1 <0>         0.1286
     35 H9         -0.5809    5.6791   -4.9385 H         1 <0>         0.1310
     36 H10         1.7829   -3.8978    0.1095 H         1 <0>         0.4356
     37 H11         3.1672   -1.5323   -0.9541 H         1 <0>         0.0710
     38 H12         3.3067   -1.4909    0.8363 H         1 <0>         0.0755
     39 H13         4.3138   -3.9380    0.6963 H         1 <0>         0.1159
     40 H14         5.8742   -3.9456   -1.1403 H         1 <0>         0.1034
     41 H15         4.9990   -2.4285   -1.8902 H         1 <0>         0.1029
@<TRIPOS>BOND
     1    1    2 1
     2    1   27 1
     3    1   28 1
     4    1   29 1
     5    2    7 ar
     6    2    3 ar
     7    3    4 ar
     8    4    5 ar
     9    4   23 1
    10    5    6 ar
    11    6    7 ar
    12    6    8 1
    13    8    9 1
    14    8   30 1
    15    9   10 1
    16    9   31 1
    17   10   11 1
    18   10   12 2
    19   12   13 1
    20   13   14 2
    21   13   15 2
    22   13   16 1
    23   16   21 ar
    24   16   17 ar
    25   17   18 ar
    26   17   32 1
    27   18   19 ar
    28   18   33 1
    29   19   20 ar
    30   19   34 1
    31   20   21 ar
    32   20   35 1
    33   21   22 1
    34   23   24 1
    35   23   36 1
    36   24   25 1
    37   24   37 1
    38   24   38 1
    39   25   26 2
    40   25   39 1
    41   26   40 1
    42   26   41 1
@<TRIPOS>MOLECULE
ZINC39159863
   51    53     0     0     0
SMALL
USER_CHARGES

@<TRIPOS>ATOM
      1 C1         -0.2928    0.7521    0.3006 C.2       1 <0>        -0.1485
      2 C2         -0.5110   -0.5161    0.0553 C.2       1 <0>        -0.1440
      3 C3         -1.8981   -0.9874   -0.2984 C.3       1 <0>         0.1286
      4 N1         -1.8586   -1.7085   -1.5730 N.pl3     1 <0>        -0.5502
      5 C4         -2.0447   -0.9724   -2.8248 C.3       1 <0>         0.3188
      6 H1         -3.0886   -1.0361   -3.1318 H         1 <0>         0.0823
      7 C5         -1.1554   -1.5798   -3.9122 C.3       1 <0>        -0.1225
      8 H2         -1.4603   -1.1988   -4.8869 H         1 <0>         0.1593
      9 C6         -1.3004   -3.0807   -3.8900 C.2       1 <0>         0.5167
     10 O1         -1.2412   -3.7111   -4.9239 O.2       1 <0>        -0.4679
     11 N2         -1.4953   -3.7199   -2.7220 N.am      1 <0>        -0.6390
     12 C7         -1.6468   -3.0346   -1.5770 C.2       1 <0>         0.5653
     13 S1         -1.5742   -3.8736   -0.0864 S.2       1 <0>        -0.6011
     14 C8          0.3038   -1.2020   -3.6493 C.3       1 <0>         0.0968
     15 H3          0.6084   -1.5851   -2.6754 H         1 <0>         0.0927
     16 C9          1.1785   -1.8006   -4.7206 C.ar      1 <0>        -0.0359
     17 C10         0.7632   -1.8272   -6.0431 C.ar      1 <0>        -0.1322
     18 C11         1.5923   -2.3844   -6.9982 C.ar      1 <0>         0.0836
     19 N3          2.7647   -2.8867   -6.6635 N.ar      1 <0>        -0.4932
     20 C12         3.1920   -2.8786   -5.4160 C.ar      1 <0>         0.0822
     21 C13         2.4201   -2.3326   -4.4079 C.ar      1 <0>        -0.1632
     22 C14         0.4450    0.2982   -3.6655 C.2       1 <0>        -0.3947
     23 C15         1.0629    0.9456   -2.6368 C.2       1 <0>         0.4841
     24 N4          1.1808    2.3116   -2.6726 N.pl3     1 <0>        -0.5905
     25 C16         0.6915    3.0112   -3.7127 C.2       1 <0>         0.5552
     26 S2          0.8514    4.7156   -3.7324 S.2       1 <0>        -0.6586
     27 N5          0.0789    2.3911   -4.7377 N.am      1 <0>        -0.4972
     28 C17        -0.0534    1.0498   -4.7448 C.2       1 <0>         0.5497
     29 O2         -0.6050    0.4924   -5.6779 O.2       1 <0>        -0.5650
     30 C18        -0.4439    3.1792   -5.8565 C.3       1 <0>         0.1278
     31 C19         0.6236    3.3252   -6.9102 C.2       1 <0>        -0.1576
     32 C20         0.3804    2.9585   -8.1441 C.2       1 <0>        -0.1718
     33 O3          1.5544    0.2476   -1.5911 O.3       1 <0>        -0.6388
     34 O4         -1.6887    0.3976   -2.6290 O.3       1 <0>        -0.4963
     35 H4          0.7012    1.0898    0.5540 H         1 <0>         0.1028
     36 H5         -1.1061    1.4606    0.2450 H         1 <0>         0.0786
     37 H6          0.3031   -1.2239    0.1065 H         1 <0>         0.1159
     38 H7         -2.2666   -1.6514    0.4835 H         1 <0>         0.1253
     39 H8         -2.5622   -0.1276   -0.3878 H         1 <0>         0.0817
     40 H9         -1.5230   -4.6894   -2.7068 H         1 <0>         0.4348
     41 H10        -0.1962   -1.4181   -6.3234 H         1 <0>         0.1494
     42 H11         1.2761   -2.4090   -8.0306 H         1 <0>         0.1463
     43 H12         4.1581   -3.2996   -5.1799 H         1 <0>         0.1470
     44 H13         2.7776   -2.3244   -3.3889 H         1 <0>         0.1285
     45 H14        -1.3097    2.6733   -6.2840 H         1 <0>         0.0983
     46 H15        -0.7392    4.1657   -5.4994 H         1 <0>         0.1196
     47 H16         1.5890    3.7321   -6.6481 H         1 <0>         0.1119
     48 H17         1.1455    3.0631   -8.8992 H         1 <0>         0.0970
     49 H18        -0.5850    2.5515   -8.4063 H         1 <0>         0.0984
     50 H19        -2.2133    0.8475   -1.9526 H         1 <0>         0.3620
     51 H20         1.6196    2.7765   -1.9431 H         1 <0>         0.4279
@<TRIPOS>BOND
     1    1    2 2
     2    1   35 1
     3    1   36 1
     4    2    3 1
     5    2   37 1
     6    3    4 1
     7    3   38 1
     8    3   39 1
     9    4   12 1
    10    4    5 1
    11    5    6 1
    12    5    7 1
    13    5   34 1
    14    7    8 1
    15    7    9 1
    16    7   14 1
    17    9   10 2
    18    9   11 am
    19   11   12 1
    20   11   40 1
    21   12   13 2
    22   14   15 1
    23   14   16 1
    24   14   22 1
    25   16   21 ar
    26   16   17 ar
    27   17   18 ar
    28   17   41 1
    29   18   19 ar
    30   18   42 1
    31   19   20 ar
    32   20   21 ar
    33   20   43 1
    34   21   44 1
    35   22   28 1
    36   22   23 2
    37   23   24 1
    38   23   33 1
    39   24   25 1
    40   24   51 1
    41   25   26 2
    42   25   27 1
    43   27   28 am
    44   27   30 1
    45   28   29 2
    46   30   31 1
    47   30   45 1
    48   30   46 1
    49   31   32 2
    50   31   47 1
    51   32   48 1
    52   32   49 1
    53   34   50 1
@<TRIPOS>MOLECULE
ZINC49549334
   48    51     0     0     0
SMALL
USER_CHARGES

@<TRIPOS>ATOM
      1 C1         -0.0167    1.3782    0.0096 C.ar      1 <0>        -0.0865
      2 C2          1.1692    2.0868    0.0021 C.ar      1 <0>        -0.1160
      3 C3          2.3812    1.4099   -0.0131 C.ar      1 <0>         0.1554
      4 C4          2.3980    0.0215   -0.0206 C.ar      1 <0>        -0.1201
      5 C5          1.2086   -0.6824   -0.0131 C.ar      1 <0>        -0.0178
      6 C6          0.0021   -0.0041    0.0020 C.ar      1 <0>        -0.1188
      7 Cl1         1.2278   -2.4182   -0.0225 Cl        1 <0>        -0.0652
      8 N1          3.5853    2.1264   -0.0212 N.pl3     1 <0>        -0.3831
      9 C7          3.8722    3.1417   -0.8654 C.2       1 <0>         0.0169
     10 C8          5.1442    3.6071   -0.5792 C.2       1 <0>        -0.1525
     11 C9          5.6273    2.7842    0.5283 C.2       1 <0>         0.0774
     12 C10         4.6250    1.9023    0.8215 C.2       1 <0>        -0.0557
     13 C11         4.7779    0.8839    1.9251 C.3       1 <0>         0.0401
     14 H1          4.2179   -0.0174    1.6758 H         1 <0>         0.0962
     15 C12         6.2682    0.5503    2.0520 C.3       1 <0>        -0.0859
     16 C13         7.1205    1.7815    1.9552 C.2       1 <0>         0.3095
     17 N2          6.8094    2.8024    1.2175 N.2       1 <0>        -0.4728
     18 O1          8.2695    1.8247    2.6627 O.3       1 <0>        -0.4767
     19 C14         4.2699    1.4575    3.2228 C.ar      1 <0>        -0.1113
     20 C15         4.8438    2.6029    3.7426 C.ar      1 <0>        -0.0589
     21 C16         4.3803    3.1305    4.9322 C.ar      1 <0>        -0.1400
     22 C17         3.3376    2.5102    5.6051 C.ar      1 <0>         0.1245
     23 C18         2.7631    1.3613    5.0812 C.ar      1 <0>        -0.2113
     24 C19         3.2269    0.8406    3.8886 C.ar      1 <0>        -0.0703
     25 O2          2.8801    3.0270    6.7758 O.3       1 <0>        -0.2904
     26 C20         1.8041    2.3359    7.4135 C.3       1 <0>         0.0400
     27 C21         1.4342    3.0494    8.6883 C.2       1 <0>         0.5190
     28 O3          2.0329    4.0512    9.0182 O.2       1 <0>        -0.5153
     29 N3          0.4379    2.5743    9.4617 N.am      1 <0>        -0.8520
     30 C22         5.8586    4.6982   -1.2482 C.2       1 <0>         0.5443
     31 O4          5.3263    5.3046   -2.1688 O.co2     1 <0>        -0.7025
     32 O5          6.9877    5.0030   -0.8865 O.co2     1 <0>        -0.6711
     33 H2         -0.9595    1.9047    0.0259 H         1 <0>         0.1400
     34 H3          1.1534    3.1667    0.0077 H         1 <0>         0.1390
     35 H4          3.3394   -0.5077   -0.0328 H         1 <0>         0.1394
     36 H5         -0.9264   -0.5557    0.0079 H         1 <0>         0.1366
     37 H6          3.2189    3.5254   -1.6350 H         1 <0>         0.1748
     38 H7          6.4447    0.0702    3.0146 H         1 <0>         0.1008
     39 H8          6.5475   -0.1394    1.2555 H         1 <0>         0.0987
     40 H9          8.7680    2.6461    2.5535 H         1 <0>         0.4061
     41 H10         5.6555    3.0854    3.2184 H         1 <0>         0.1362
     42 H11         4.8294    4.0248    5.3382 H         1 <0>         0.1331
     43 H12         1.9513    0.8766    5.6032 H         1 <0>         0.1254
     44 H13         2.7771   -0.0513    3.4781 H         1 <0>         0.1229
     45 H14         0.9419    2.3120    6.7471 H         1 <0>         0.0933
     46 H15         2.1133    1.3164    7.6444 H         1 <0>         0.0936
     47 H16        -0.0410    1.7731    9.1979 H         1 <0>         0.4028
     48 H17         0.1997    3.0336   10.2822 H         1 <0>         0.4084
@<TRIPOS>BOND
     1    1    6 ar
     2    1    2 ar
     3    1   33 1
     4    2    3 ar
     5    2   34 1
     6    3    4 ar
     7    3    8 1
     8    4    5 ar
     9    4   35 1
    10    5    6 ar
    11    5    7 1
    12    6   36 1
    13    8   12 1
    14    8    9 1
    15    9   10 2
    16    9   37 1
    17   10   11 1
    18   10   30 1
    19   11   17 1
    20   11   12 2
    21   12   13 1
    22   13   14 1
    23   13   15 1
    24   13   19 1
    25   15   16 1
    26   15   38 1
    27   15   39 1
    28   16   17 2
    29   16   18 1
    30   18   40 1
    31   19   24 ar
    32   19   20 ar
    33   20   21 ar
    34   20   41 1
    35   21   22 ar
    36   21   42 1
    37   22   23 ar
    38   22   25 1
    39   23   24 ar
    40   23   43 1
    41   24   44 1
    42   25   26 1
    43   26   27 1
    44   26   45 1
    45   26   46 1
    46   27   28 2
    47   27   29 am
    48   29   47 1
    49   29   48 1
    50   30   31 2
    51   30   32 1
@<TRIPOS>MOLECULE
ZINC67311773
   49    50     0     0     0
SMALL
USER_CHARGES

@<TRIPOS>ATOM
      1 C1         -0.0187    1.5258    0.0104 C.3       1 <0>        -0.1553
      2 C2          0.0021   -0.0041    0.0020 C.3       1 <0>         0.0884
      3 N1         -1.3723   -0.5112    0.0124 N.pl3     1 <0>        -0.4911
      4 C3         -1.9879   -0.7427    1.1920 C.2       1 <0>         0.5018
      5 O1         -1.3555   -0.5138    2.3562 O.3       1 <0>        -0.6080
      6 C4         -3.3119   -1.2306    1.1716 C.ar      1 <0>        -0.2215
      7 C5         -4.0159   -1.4942    2.3551 C.ar      1 <0>        -0.0066
      8 C6         -5.2924   -1.9640    2.2949 C.ar      1 <0>        -0.1732
      9 C7         -5.9174   -2.1900    1.0586 C.ar      1 <0>        -0.0768
     10 C8         -5.2469   -1.9386   -0.1271 C.ar      1 <0>        -0.0646
     11 C9         -3.9316   -1.4540   -0.0859 C.ar      1 <0>         0.2155
     12 N2         -3.2447   -1.1963   -1.2079 N.2       1 <0>        -0.5523
     13 C10        -2.0050   -0.7342   -1.1515 C.2       1 <0>         0.5038
     14 S1         -1.1760   -0.4159   -2.6152 S.2       1 <0>        -0.7009
     15 C11        -7.3067   -2.7025    1.0215 C.2       1 <0>         0.5681
     16 O2         -7.8531   -2.9001   -0.0457 O.2       1 <0>        -0.5216
     17 N3         -7.9647   -2.9496    2.1715 N.am      1 <0>        -0.5295
     18 N4         -9.2788   -3.4343    2.1364 N.am      1 <0>        -0.5276
     19 C12        -9.9368   -3.6814    3.2864 C.2       1 <0>         0.7157
     20 O3        -11.0772   -4.1020    3.2560 O.2       1 <0>        -0.5733
     21 N5         -9.3307   -3.4622    4.4701 N.am      1 <0>        -0.7442
     22 C13       -10.0460   -3.7307    5.7201 C.3       1 <0>         0.1403
     23 C14        -9.1394   -3.4007    6.9075 C.3       1 <0>        -0.1341
     24 C15        -9.8864   -3.6812    8.2130 C.3       1 <0>         0.0671
     25 O4         -9.0396   -3.3729    9.3220 O.3       1 <0>        -0.3893
     26 C16        -9.6447   -3.6009   10.5963 C.3       1 <0>         0.0578
     27 C17        -8.6531   -3.2392   11.7039 C.3       1 <0>        -0.1529
     28 H1          1.0039    1.9031    0.0027 H         1 <0>         0.0689
     29 H2         -0.5459    1.8868   -0.8726 H         1 <0>         0.0678
     30 H3         -0.5289    1.8773    0.9072 H         1 <0>         0.0511
     31 H4          0.5123   -0.3556   -0.8948 H         1 <0>         0.1166
     32 H5          0.5293   -0.3651    0.8851 H         1 <0>         0.0868
     33 H6         -3.5463   -1.3253    3.3129 H         1 <0>         0.1376
     34 H7         -5.8305   -2.1655    3.2094 H         1 <0>         0.1190
     35 H8         -5.7329   -2.1148   -1.0754 H         1 <0>         0.1490
     36 H9         -7.5286   -2.7918    3.0234 H         1 <0>         0.4199
     37 H10        -9.7149   -3.5920    1.2845 H         1 <0>         0.4448
     38 H11        -8.4210   -3.1266    4.4944 H         1 <0>         0.3941
     39 H12       -10.9431   -3.1133    5.7652 H         1 <0>         0.0726
     40 H13       -10.3270   -4.7832    5.7590 H         1 <0>         0.0726
     41 H14        -8.2423   -4.0181    6.8624 H         1 <0>         0.0811
     42 H15        -8.8584   -2.3482    6.8686 H         1 <0>         0.0811
     43 H16       -10.7835   -3.0637    8.2581 H         1 <0>         0.0533
     44 H17       -10.1673   -4.7336    8.2519 H         1 <0>         0.0533
     45 H18       -10.5368   -2.9818   10.6909 H         1 <0>         0.0486
     46 H19        -9.9207   -4.6517   10.6847 H         1 <0>         0.0486
     47 H20        -9.1146   -3.4131   12.6759 H         1 <0>         0.0708
     48 H21        -7.7610   -3.8583   11.6093 H         1 <0>         0.0635
     49 H22        -8.3771   -2.1884   11.6155 H         1 <0>         0.0635
@<TRIPOS>BOND
     1    1    2 1
     2    1   28 1
     3    1   29 1
     4    1   30 1
     5    2    3 1
     6    2   31 1
     7    2   32 1
     8    3   13 1
     9    3    4 1
    10    4    5 1
    11    4    6 2
    12    6   11 ar
    13    6    7 ar
    14    7    8 ar
    15    7   33 1
    16    8    9 ar
    17    8   34 1
    18    9   10 ar
    19    9   15 1
    20   10   11 ar
    21   10   35 1
    22   11   12 2
    23   12   13 1
    24   13   14 2
    25   15   16 2
    26   15   17 am
    27   17   18 1
    28   17   36 1
    29   18   19 am
    30   18   37 1
    31   19   20 2
    32   19   21 am
    33   21   22 1
    34   21   38 1
    35   22   23 1
    36   22   39 1
    37   22   40 1
    38   23   24 1
    39   23   41 1
    40   23   42 1
    41   24   25 1
    42   24   43 1
    43   24   44 1
    44   25   26 1
    45   26   27 1
    46   26   45 1
    47   26   46 1
    48   27   47 1
    49   27   48 1
    50   27   49 1
@<TRIPOS>MOLECULE
ZINC20527414
   50    52     0     0     0
SMALL
USER_CHARGES
N-(4-acetylphenyl)-2-[[4-amino-5-[(N'E)-N'-[(2-hydroxy-5-nitro-phenyl)methylene]hydrazino]-1,2,4-triazol-3-yl]sulfanyl]acetamide
@<TRIPOS>ATOM
      1 C1        -11.2935    0.6234    4.7384 C.3       1 <0>        -0.2061
      2 C2        -11.3700    1.6863    3.6728 C.2       1 <0>         0.3978
      3 O1        -12.3571    2.3855    3.5834 O.2       1 <0>        -0.4652
      4 C3        -10.2496    1.8755    2.7426 C.ar      1 <0>        -0.1967
      5 C4        -10.3185    2.8626    1.7515 C.ar      1 <0>        -0.0375
      6 C5         -9.2699    3.0360    0.8856 C.ar      1 <0>        -0.1605
      7 C6         -8.1378    2.2326    0.9904 C.ar      1 <0>         0.1929
      8 C7         -8.0672    1.2463    1.9703 C.ar      1 <0>        -0.1402
      9 C8         -9.1086    1.0696    2.8442 C.ar      1 <0>        -0.0503
     10 N1         -7.0747    2.4124    0.1082 N.am      1 <0>        -0.6821
     11 C9         -5.8102    2.2040    0.5255 C.2       1 <0>         0.5397
     12 O2         -5.5899    1.9537    1.6915 O.2       1 <0>        -0.5049
     13 C10        -4.6700    2.2821   -0.4569 C.3       1 <0>        -0.1468
     14 S1         -3.1102    1.9577    0.4021 S.3       1 <0>         0.0895
     15 C11        -2.0148    2.1040   -0.9054 C.2       1 <0>         0.0509
     16 N2         -2.3321    2.3857   -2.1845 N.2       1 <0>        -0.2625
     17 N3         -1.2626    2.4179   -2.8979 N.2       1 <0>        -0.2517
     18 C12        -0.1941    2.1646   -2.1201 C.2       1 <0>         0.4372
     19 N4         -0.6578    1.9561   -0.8444 N.pl3     1 <0>        -0.2324
     20 N5          0.0875    1.6655    0.2629 N.3       1 <0>        -0.7681
     21 N6          1.0824    2.1208   -2.5165 N.pl3     1 <0>        -0.4942
     22 N7          1.3817    2.3371   -3.7525 N.2       1 <0>        -0.1736
     23 C13         2.6394    2.2940   -4.1431 C.2       1 <0>         0.0816
     24 C14         2.9682    2.5316   -5.5005 C.ar      1 <0>        -0.1893
     25 C15         4.3080    2.4871   -5.9236 C.ar      1 <0>         0.0204
     26 C16         4.6171    2.7170   -7.2324 C.ar      1 <0>        -0.1228
     27 C17         3.6171    2.9954   -8.1557 C.ar      1 <0>        -0.0176
     28 C18         2.2933    3.0442   -7.7643 C.ar      1 <0>        -0.2300
     29 C19         1.9520    2.8095   -6.4412 C.ar      1 <0>         0.3174
     30 O3          0.6544    2.8506   -6.0529 O.3       1 <0>        -0.5869
     31 N8          6.0295    2.6689   -7.6724 N.pl3     1 <0>         0.0345
     32 O4          6.9818    2.4050   -6.8017 O.2       1 <0>        -0.2678
     33 O5          6.3340    2.8899   -8.9345 O.3       1 <0>        -0.2636
     34 H1        -10.3307    0.0968    4.6625 H         1 <0>         0.0847
     35 H2        -12.1158   -0.0941    4.6003 H         1 <0>         0.0952
     36 H3        -11.3782    1.0917    5.7301 H         1 <0>         0.0953
     37 H4        -11.1962    3.4866    1.6697 H         1 <0>         0.1370
     38 H5         -9.3221    3.7972    0.1213 H         1 <0>         0.1347
     39 H6         -7.1890    0.6221    2.0449 H         1 <0>         0.1415
     40 H7         -9.0512    0.3071    3.6069 H         1 <0>         0.1378
     41 H8         -7.2673    2.7244   -0.9289 H         1 <0>         0.4457
     42 H9         -4.8157    1.5320   -1.2482 H         1 <0>         0.1345
     43 H10        -4.6400    3.2864   -0.9048 H         1 <0>         0.1333
     44 H11         1.1805    1.5719    0.1812 H         1 <0>         0.4402
     45 H12        -0.4053    1.5251    1.2363 H         1 <0>         0.4477
     46 H13         1.8771    1.9003   -1.7886 H         1 <0>         0.3756
     47 H14         3.4341    2.0735   -3.4152 H         1 <0>         0.1018
     48 H15         5.0922    2.2714   -5.2131 H         1 <0>         0.1305
     49 H16         3.8769    3.1750   -9.1885 H         1 <0>         0.1278
     50 H17         1.5234    3.2612   -8.4901 H         1 <0>         0.1257
@<TRIPOS>BOND
     1    1    2 1
     2    1   34 1
     3    1   35 1
     4    1   36 1
     5    2    3 2
     6    2    4 1
     7    4    9 ar
     8    4    5 ar
     9    5    6 ar
    10    5   37 1
    11    6    7 ar
    12    6   38 1
    13    7    8 ar
    14    7   10 1
    15    8    9 ar
    16    8   39 1
    17    9   40 1
    18   10   11 am
    19   10   41 1
    20   11   12 2
    21   11   13 1
    22   13   14 1
    23   13   42 1
    24   13   43 1
    25   14   15 1
    26   15   19 1
    27   15   16 2
    28   16   17 1
    29   17   18 2
    30   18   19 1
    31   18   21 1
    32   19   20 1
    33   20   44 1
    34   20   45 1
    35   21   22 1
    36   21   46 1
    37   22   23 2
    38   23   24 1
    39   23   47 1
    40   24   29 ar
    41   24   25 ar
    42   25   26 ar
    43   25   48 1
    44   26   27 ar
    45   26   31 1
    46   27   28 ar
    47   27   49 1
    48   28   29 ar
    49   28   50 1
    50   29   30 1
    51   31   32 2
    52   31   33 1
@<TRIPOS>MOLECULE
ZINC35458011
   58    61     0     0     0
SMALL
USER_CHARGES

@<TRIPOS>ATOM
      1 C1          0.8959   -0.5333    1.2310 C.ar      1 <0>        -0.0308
      2 C2          2.0586    0.1544    1.4953 C.ar      1 <0>        -0.1511
      3 C3          2.3278    1.3487    0.8363 C.ar      1 <0>         0.1076
      4 C4          1.4250    1.8549   -0.0919 C.ar      1 <0>        -0.1584
      5 C5          0.2592    1.1752   -0.3632 C.ar      1 <0>        -0.0817
      6 C6         -0.0163   -0.0283    0.2969 C.ar      1 <0>        -0.0800
      7 C7         -1.2590   -0.7586    0.0105 C.2       1 <0>         0.0094
      8 C8         -1.2413   -2.1050   -0.0989 C.2       1 <0>        -0.2016
      9 C9         -2.4425   -3.0290   -0.2198 C.3       1 <0>        -0.1464
     10 H1         -3.1487   -2.6541   -0.9606 H         1 <0>         0.1012
     11 C10        -1.7896   -4.3472   -0.6971 C.3       1 <0>         0.1382
     12 H2         -2.2947   -5.2076   -0.2582 H         1 <0>         0.1446
     13 O1         -0.4424   -4.2443   -0.2053 O.3       1 <0>        -0.3221
     14 C11        -0.0962   -2.9452   -0.1305 C.2       1 <0>         0.5125
     15 O2          1.0510   -2.5425   -0.0915 O.2       1 <0>        -0.4702
     16 C12        -1.8051   -4.4341   -2.2016 C.ar      1 <0>        -0.1253
     17 C13        -0.7939   -3.8442   -2.9374 C.ar      1 <0>        -0.0711
     18 C14        -0.8061   -3.9221   -4.3166 C.ar      1 <0>        -0.1405
     19 C15        -1.8337   -4.5932   -4.9633 C.ar      1 <0>         0.1199
     20 C16        -2.8469   -5.1845   -4.2227 C.ar      1 <0>        -0.1799
     21 C17        -2.8274   -5.1083   -2.8435 C.ar      1 <0>        -0.0632
     22 O3         -1.8481   -4.6707   -6.3200 O.3       1 <0>        -0.2962
     23 C18        -2.9369   -5.3773   -6.9178 C.3       1 <0>         0.2246
     24 H3         -3.0474   -6.3492   -6.4369 H         1 <0>         0.0678
     25 C19        -2.6591   -5.5749   -8.4103 C.3       1 <0>         0.0669
     26 H4         -1.7655   -6.1861   -8.5368 H         1 <0>         0.0717
     27 C20        -3.8566   -6.2792   -9.0557 C.3       1 <0>         0.0795
     28 H5         -3.9775   -7.2693   -8.6163 H         1 <0>         0.0800
     29 C21        -5.1193   -5.4493   -8.8042 C.3       1 <0>         0.0915
     30 H6         -5.9851   -5.9708   -9.2124 H         1 <0>         0.0736
     31 C22        -5.3020   -5.2566   -7.2965 C.3       1 <0>         0.1101
     32 H7         -5.4436   -6.2269   -6.8206 H         1 <0>         0.0804
     33 O4         -4.1407   -4.6249   -6.7540 O.3       1 <0>        -0.3587
     34 C23        -6.5281   -4.3782   -7.0393 C.3       1 <0>         0.0902
     35 O5         -6.7670   -4.2939   -5.6330 O.3       1 <0>        -0.5646
     36 O6         -4.9872   -4.1750   -9.4373 O.3       1 <0>        -0.5273
     37 O7         -3.6367   -6.4040  -10.4621 O.3       1 <0>        -0.5477
     38 O8         -2.4598   -4.3034   -9.0314 O.3       1 <0>        -0.5231
     39 C24        -3.1154   -3.2140    1.1158 C.2       1 <0>         0.5108
     40 O9         -3.5915   -2.2536    1.6968 O.co2     1 <0>        -0.6772
     41 O10        -3.1838   -4.3241    1.6154 O.co2     1 <0>        -0.6789
     42 O11         3.4757    2.0230    1.1005 O.3       1 <0>        -0.5019
     43 H8          0.6898   -1.4632    1.7402 H         1 <0>         0.1254
     44 H9          2.7628   -0.2342    2.2160 H         1 <0>         0.1266
     45 H10         1.6386    2.7832   -0.6008 H         1 <0>         0.1261
     46 H11        -0.4418    1.5696   -1.0839 H         1 <0>         0.1284
     47 H12        -2.1864   -0.2190   -0.1125 H         1 <0>         0.1431
     48 H13         0.0059   -3.3219   -2.4334 H         1 <0>         0.1233
     49 H14        -0.0164   -3.4606   -4.8909 H         1 <0>         0.1297
     50 H15        -3.6480   -5.7075   -4.7238 H         1 <0>         0.1286
     51 H16        -3.6135   -5.5723   -2.2663 H         1 <0>         0.1335
     52 H17        -6.3497   -3.3796   -7.4381 H         1 <0>         0.0684
     53 H18        -7.3976   -4.8155   -7.5300 H         1 <0>         0.0617
     54 H19        -7.5314   -3.7512   -5.3957 H         1 <0>         0.3843
     55 H20        -4.8636   -4.2226  -10.3952 H         1 <0>         0.3828
     56 H21        -2.8481   -6.9137  -10.6933 H         1 <0>         0.3858
     57 H22        -1.7185   -3.8001   -8.6679 H         1 <0>         0.3825
     58 H23         4.2186    1.7716    0.5349 H         1 <0>         0.3871
@<TRIPOS>BOND
     1    1    6 ar
     2    1    2 ar
     3    1   43 1
     4    2    3 ar
     5    2   44 1
     6    3    4 ar
     7    3   42 1
     8    4    5 ar
     9    4   45 1
    10    5    6 ar
    11    5   46 1
    12    6    7 1
    13    7    8 2
    14    7   47 1
    15    8   14 1
    16    8    9 1
    17    9   10 1
    18    9   11 1
    19    9   39 1
    20   11   12 1
    21   11   13 1
    22   11   16 1
    23   13   14 1
    24   14   15 2
    25   16   21 ar
    26   16   17 ar
    27   17   18 ar
    28   17   48 1
    29   18   19 ar
    30   18   49 1
    31   19   20 ar
    32   19   22 1
    33   20   21 ar
    34   20   50 1
    35   21   51 1
    36   22   23 1
    37   23   24 1
    38   23   33 1
    39   23   25 1
    40   25   26 1
    41   25   27 1
    42   25   38 1
    43   27   28 1
    44   27   29 1
    45   27   37 1
    46   29   30 1
    47   29   31 1
    48   29   36 1
    49   31   32 1
    50   31   33 1
    51   31   34 1
    52   34   35 1
    53   34   52 1
    54   34   53 1
    55   35   54 1
    56   36   55 1
    57   37   56 1
    58   38   57 1
    59   39   40 2
    60   39   41 1
    61   42   58 1
@<TRIPOS>MOLECULE
ZINC39937479
   45    47     0     0     0
SMALL
USER_CHARGES

@<TRIPOS>ATOM
      1 C1          0.0109    1.3267    0.4750 C.ar      1 <0>        -0.1643
      2 C2          1.1950    2.0455    0.4471 C.ar      1 <0>        -0.0392
      3 C3          2.4016    1.3974    0.2728 C.ar      1 <0>        -0.2142
      4 C4          2.4352    0.0188    0.1242 C.ar      1 <0>         0.2027
      5 C5          1.2396   -0.7120    0.1524 C.ar      1 <0>        -0.1801
      6 C6          0.0256   -0.0433    0.3295 C.ar      1 <0>        -0.0565
      7 C7          1.2627   -2.1783   -0.0050 C.2       1 <0>         0.5471
      8 O1          2.3211   -2.7566   -0.1597 O.2       1 <0>        -0.4047
      9 N1          0.1106   -2.8773    0.0227 N.am      1 <0>        -0.6142
     10 C8          0.1324   -4.2582   -0.1255 C.2       1 <0>         0.3282
     11 N2          1.1724   -5.0460   -0.2949 N.2       1 <0>        -0.5231
     12 C9          1.0256   -6.3519   -0.4208 C.2       1 <0>         0.2007
     13 C10        -0.2389   -6.8379   -0.3674 C.2       1 <0>        -0.2583
     14 S1         -1.1647   -5.3306   -0.1245 S.3       1 <0>         0.2458
     15 N3         -0.7193   -8.2342   -0.4753 N.pl3     1 <0>         0.0973
     16 O2          0.0712   -9.1347   -0.6360 O.2       1 <0>        -0.1456
     17 O3         -1.9020   -8.4738   -0.4027 O.3       1 <0>        -0.1580
     18 O4          3.6199   -0.6192   -0.0480 O.3       1 <0>        -0.2761
     19 C11         4.7871    0.1981   -0.1566 C.3       1 <0>         0.3853
     20 C12         6.0260   -0.6939   -0.2722 C.3       1 <0>         0.1438
     21 H1          5.9203   -1.3542   -1.1331 H         1 <0>         0.0903
     22 C13         6.1626   -1.5325    1.0023 C.3       1 <0>         0.1200
     23 H2          7.0734   -2.1289    0.9505 H         1 <0>         0.0761
     24 C14         6.2320   -0.5952    2.2119 C.3       1 <0>         0.0674
     25 H3          7.1226    0.0288    2.1386 H         1 <0>         0.0701
     26 C15         4.9852    0.2929    2.2316 C.3       1 <0>         0.0111
     27 H4          4.0975   -0.3292    2.3457 H         1 <0>         0.0706
     28 O5          4.9018    1.0220    1.0054 O.3       1 <0>        -0.3619
     29 C16         5.0740    1.2583    3.3854 C.2       1 <0>         0.5063
     30 O6          5.1576    2.4560    3.1732 O.co2     1 <0>        -0.6635
     31 O7          5.0622    0.8416    4.5312 O.co2     1 <0>        -0.6814
     32 O8          6.2881   -1.3683    3.4124 O.3       1 <0>        -0.5676
     33 O9          5.0318   -2.3968    1.1294 O.3       1 <0>        -0.5266
     34 O10         7.1880    0.1216   -0.4357 O.3       1 <0>        -0.5329
     35 O11         4.6842    1.0240   -1.3182 O.3       1 <0>        -0.5435
     36 H5         -0.9276    1.8422    0.6161 H         1 <0>         0.1326
     37 H6          1.1741    3.1192    0.5619 H         1 <0>         0.1355
     38 H7          3.3203    1.9647    0.2517 H         1 <0>         0.1576
     39 H8         -0.8999   -0.5995    0.3523 H         1 <0>         0.1275
     40 H9         -0.7337   -2.4159    0.1462 H         1 <0>         0.4278
     41 H10         1.8750   -7.0041   -0.5604 H         1 <0>         0.2005
     42 H11         6.3337   -0.8382    4.2199 H         1 <0>         0.3995
     43 H12         5.0523   -2.9582    1.9165 H         1 <0>         0.3855
     44 H13         7.1669    0.6832   -1.2226 H         1 <0>         0.3926
     45 H14         3.9730    1.6778   -1.2741 H         1 <0>         0.3896
@<TRIPOS>BOND
     1    1    6 ar
     2    1    2 ar
     3    1   36 1
     4    2    3 ar
     5    2   37 1
     6    3    4 ar
     7    3   38 1
     8    4    5 ar
     9    4   18 1
    10    5    6 ar
    11    5    7 1
    12    6   39 1
    13    7    8 2
    14    7    9 am
    15    9   10 1
    16    9   40 1
    17   10   14 1
    18   10   11 2
    19   11   12 1
    20   12   13 2
    21   12   41 1
    22   13   14 1
    23   13   15 1
    24   15   16 2
    25   15   17 1
    26   18   19 1
    27   19   28 1
    28   19   20 1
    29   19   35 1
    30   20   21 1
    31   20   22 1
    32   20   34 1
    33   22   23 1
    34   22   24 1
    35   22   33 1
    36   24   25 1
    37   24   26 1
    38   24   32 1
    39   26   27 1
    40   26   28 1
    41   26   29 1
    42   29   30 2
    43   29   31 1
    44   32   42 1
    45   33   43 1
    46   34   44 1
    47   35   45 1
@<TRIPOS>MOLECULE
ZINC34145146
   51    54     0     0     0
SMALL
USER_CHARGES

@<TRIPOS>ATOM
      1 C1         -0.0141    1.3509    0.1969 C.ar      1 <0>        -0.1108
      2 C2          1.1726    2.0579    0.1439 C.ar      1 <0>        -0.1253
      3 C3          2.3782    1.3827    0.1052 C.ar      1 <0>        -0.0941
      4 C4          2.3971    0.0005    0.1201 C.ar      1 <0>        -0.1197
      5 C5          1.2104   -0.7064    0.1740 C.ar      1 <0>        -0.0969
      6 C6          0.0048   -0.0312    0.2113 C.ar      1 <0>        -0.1215
      7 C7          3.7114   -0.7356    0.0769 C.3       1 <0>         0.1465
      8 N1          4.1913   -0.9585    1.4430 N.am      1 <0>        -0.5915
      9 C8          4.9931   -0.0739    2.1207 C.2       1 <0>         0.5978
     10 O1          5.2447    1.0746    1.8254 O.2       1 <0>        -0.4666
     11 C9          5.4702   -0.8166    3.2641 C.3       1 <0>        -0.2169
     12 H1          6.1750   -1.5118    2.8080 H         1 <0>         0.1352
     13 C10         6.0700   -0.5893    4.5864 C.3       1 <0>         0.1344
     14 H2          7.1387   -0.3966    4.4920 H         1 <0>         0.1574
     15 N2          5.8317   -1.8719    5.3271 N.4       1 <0>        -0.4911
     16 C11         4.9928   -2.7508    4.4488 C.3       1 <0>         0.0372
     17 C12         4.2163   -1.7168    3.6057 C.3       1 <0>        -0.1135
     18 H3          3.4128   -1.2089    4.1391 H         1 <0>         0.1518
     19 C13         3.8842   -2.0661    2.1810 C.2       1 <0>         0.5515
     20 O2          3.4378   -3.1164    1.7721 O.2       1 <0>        -0.4085
     21 C14         5.8751   -3.6457    3.5761 C.3       1 <0>        -0.1944
     22 C15         6.6775   -4.5704    4.4550 C.2       1 <0>         0.4907
     23 O3          6.5549   -4.5184    5.6669 O.co2     1 <0>        -0.6670
     24 O4          7.4491   -5.3705    3.9540 O.co2     1 <0>        -0.6824
     25 C16         4.0412   -3.5781    5.2740 C.2       1 <0>         0.5291
     26 O5          4.0536   -3.4900    6.4900 O.co2     1 <0>        -0.6592
     27 O6          3.2588   -4.3356    4.7257 O.co2     1 <0>        -0.6371
     28 C17         5.3883    0.5596    5.2838 C.ar      1 <0>        -0.1595
     29 C18         4.3106    0.3210    6.1153 C.ar      1 <0>        -0.0898
     30 C19         3.6835    1.3721    6.7560 C.ar      1 <0>        -0.1370
     31 C20         4.1347    2.6708    6.5660 C.ar      1 <0>         0.1399
     32 C21         5.2155    2.9127    5.7325 C.ar      1 <0>        -0.1685
     33 C22         5.8467    1.8555    5.0950 C.ar      1 <0>         0.1660
     34 O7          6.9104    2.0889    4.2819 O.3       1 <0>        -0.4942
     35 O8          3.5172    3.7044    7.1962 O.3       1 <0>        -0.4950
     36 H4         -0.9558    1.8785    0.2317 H         1 <0>         0.1222
     37 H5          1.1579    3.1377    0.1323 H         1 <0>         0.1225
     38 H6          3.3054    1.9350    0.0631 H         1 <0>         0.1263
     39 H7          1.2252   -1.7862    0.1853 H         1 <0>         0.1272
     40 H8         -0.9224   -0.5835    0.2531 H         1 <0>         0.1250
     41 H9          3.5741   -1.6954   -0.4211 H         1 <0>         0.1071
     42 H10         4.4423   -0.1423   -0.4726 H         1 <0>         0.1016
     43 H11         6.7126   -2.3235    5.5221 H         1 <0>         0.4369
     44 H12         5.2469   -4.2342    2.9074 H         1 <0>         0.1140
     45 H13         6.5516   -3.0260    2.9875 H         1 <0>         0.0609
     46 H14         3.9578   -0.6888    6.2641 H         1 <0>         0.1448
     47 H15         2.8412    1.1831    7.4051 H         1 <0>         0.1434
     48 H16         5.5681    3.9226    5.5833 H         1 <0>         0.1424
     49 H17         6.6719    2.2495    3.3586 H         1 <0>         0.4036
     50 H18         3.8875    3.9132    8.0647 H         1 <0>         0.3970
     51 H19         5.3432   -1.6835    6.1896 H         1 <0>         0.4277
@<TRIPOS>BOND
     1    1    6 ar
     2    1    2 ar
     3    1   36 1
     4    2    3 ar
     5    2   37 1
     6    3    4 ar
     7    3   38 1
     8    4    5 ar
     9    4    7 1
    10    5    6 ar
    11    5   39 1
    12    6   40 1
    13    7    8 1
    14    7   41 1
    15    7   42 1
    16    8   19 am
    17    8    9 am
    18    9   10 2
    19    9   11 1
    20   11   12 1
    21   11   17 1
    22   11   13 1
    23   13   14 1
    24   13   15 1
    25   13   28 1
    26   15   16 1
    27   15   43 1
    28   15   51 1
    29   16   17 1
    30   16   21 1
    31   16   25 1
    32   17   18 1
    33   17   19 1
    34   19   20 2
    35   21   22 1
    36   21   44 1
    37   21   45 1
    38   22   23 2
    39   22   24 1
    40   25   26 2
    41   25   27 1
    42   28   33 ar
    43   28   29 ar
    44   29   30 ar
    45   29   46 1
    46   30   31 ar
    47   30   47 1
    48   31   32 ar
    49   31   35 1
    50   32   33 ar
    51   32   48 1
    52   33   34 1
    53   34   49 1
    54   35   50 1
@<TRIPOS>MOLECULE
ZINC65748862
   50    52     0     0     0
SMALL
USER_CHARGES

@<TRIPOS>ATOM
      1 C1          2.4007    0.9978   -0.3078 C.3       1 <0>        -0.1208
      2 C2          1.7876   -0.3768   -0.2328 C.ar      1 <0>        -0.0514
      3 C3          0.9891   -0.8321   -1.2672 C.ar      1 <0>        -0.1325
      4 C4          0.4248   -2.0891   -1.2051 C.ar      1 <0>        -0.0507
      5 C5          0.6613   -2.9031   -0.0951 C.ar      1 <0>        -0.1682
      6 C6          1.4685   -2.4373    0.9450 C.ar      1 <0>        -0.0748
      7 C7          2.0304   -1.1800    0.8676 C.ar      1 <0>        -0.1283
      8 C8          0.0597   -4.2509   -0.0214 C.2       1 <0>         0.4465
      9 O1         -0.5278   -4.7079   -0.9828 O.2       1 <0>        -0.4303
     10 C9          0.1718   -5.0416    1.2185 C.ar      1 <0>        -0.1230
     11 C10         0.1582   -4.4015    2.4616 C.ar      1 <0>        -0.0485
     12 C11         0.2626   -5.1418    3.6185 C.ar      1 <0>        -0.0567
     13 C12         0.3816   -6.5240    3.5540 C.ar      1 <0>         0.1726
     14 C13         0.3964   -7.1691    2.3176 C.ar      1 <0>         0.1132
     15 C14         0.2863   -6.4339    1.1539 C.ar      1 <0>        -0.0719
     16 O2          0.5140   -8.5227    2.2583 O.3       1 <0>        -0.2751
     17 C15         0.5221   -9.1168    0.9587 C.3       1 <0>         0.2132
     18 H1         -0.3217   -8.7392    0.3811 H         1 <0>         0.0691
     19 C16         0.4099  -10.6377    1.0919 C.3       1 <0>         0.1067
     20 H2          1.2310  -11.0114    1.7036 H         1 <0>         0.0948
     21 C17         0.4798  -11.2710   -0.3011 C.3       1 <0>         0.1280
     22 H3         -0.3691  -10.9360   -0.8970 H         1 <0>         0.0760
     23 C18         1.7840  -10.8416   -0.9802 C.3       1 <0>         0.0624
     24 H4          1.8165  -11.2429   -1.9931 H         1 <0>         0.0811
     25 C19         1.8432   -9.3128   -1.0334 C.3       1 <0>        -0.0056
     26 H5          1.0168   -8.9378   -1.6372 H         1 <0>         0.0659
     27 O3          1.7420   -8.7869    0.2915 O.3       1 <0>        -0.3485
     28 C20         3.1502   -8.8815   -1.6471 C.2       1 <0>         0.5059
     29 O4          3.3948   -9.1491   -2.8112 O.co2     1 <0>        -0.6804
     30 O5          3.9630   -8.2649   -0.9796 O.co2     1 <0>        -0.6560
     31 O6          2.8969  -11.3381   -0.2340 O.3       1 <0>        -0.5473
     32 O7          0.4475  -12.6946   -0.1812 O.3       1 <0>        -0.5415
     33 O8         -0.8353  -10.9725    1.7080 O.3       1 <0>        -0.5501
     34 O9          0.4842   -7.2490    4.6974 O.3       1 <0>        -0.4546
     35 N1          0.2484   -4.4624    4.9335 N.pl3     1 <0>         0.0418
     36 O10         0.1453   -3.2592    4.9913 O.2       1 <0>        -0.1649
     37 O11         0.3399   -5.1108    5.9498 O.3       1 <0>        -0.1307
     38 H6          3.3736    0.9356   -0.7953 H         1 <0>         0.0766
     39 H7          1.7482    1.6559   -0.8817 H         1 <0>         0.0697
     40 H8          2.5237    1.3963    0.6993 H         1 <0>         0.0709
     41 H9          0.8071   -0.2016   -2.1250 H         1 <0>         0.1309
     42 H10        -0.1988   -2.4430   -2.0128 H         1 <0>         0.1366
     43 H11         1.6554   -3.0616    1.8062 H         1 <0>         0.1340
     44 H12         2.6581   -0.8202    1.6693 H         1 <0>         0.1323
     45 H13         0.0661   -3.3268    2.5147 H         1 <0>         0.1703
     46 H14         0.2932   -6.9326    0.1960 H         1 <0>         0.1612
     47 H15         3.7573  -11.1032   -0.6077 H         1 <0>         0.3875
     48 H16         0.4886  -13.1616   -1.0269 H         1 <0>         0.3802
     49 H17        -0.9489  -10.5999    2.5930 H         1 <0>         0.3817
     50 H18        -0.3656   -7.5361    5.0586 H         1 <0>         0.4028
@<TRIPOS>BOND
     1    1    2 1
     2    1   38 1
     3    1   39 1
     4    1   40 1
     5    2    7 ar
     6    2    3 ar
     7    3    4 ar
     8    3   41 1
     9    4    5 ar
    10    4   42 1
    11    5    6 ar
    12    5    8 1
    13    6    7 ar
    14    6   43 1
    15    7   44 1
    16    8    9 2
    17    8   10 1
    18   10   15 ar
    19   10   11 ar
    20   11   12 ar
    21   11   45 1
    22   12   13 ar
    23   12   35 1
    24   13   14 ar
    25   13   34 1
    26   14   15 ar
    27   14   16 1
    28   15   46 1
    29   16   17 1
    30   17   18 1
    31   17   27 1
    32   17   19 1
    33   19   20 1
    34   19   21 1
    35   19   33 1
    36   21   22 1
    37   21   23 1
    38   21   32 1
    39   23   24 1
    40   23   25 1
    41   23   31 1
    42   25   26 1
    43   25   27 1
    44   25   28 1
    45   28   29 2
    46   28   30 1
    47   31   47 1
    48   32   48 1
    49   33   49 1
    50   34   50 1
    51   35   36 2
    52   35   37 1
@<TRIPOS>MOLECULE
ZINC13508092
   42    43     0     0     0
SMALL
USER_CHARGES
(1S,3R,4R,5R)-3-[(Z)-3-(3,4-dihydroxyphenyl)prop-2-enoyl]oxy-1,4,5-trihydroxy-cyclohexane-1-carboxylic acid
@<TRIPOS>ATOM
      1 C1         -0.6016   -1.9896   -0.7917 C.ar      1 <0>        -0.0895
      2 C2         -0.4518   -0.6200   -0.7982 C.ar      1 <0>        -0.1445
      3 C3          0.5529   -0.0244   -0.0478 C.ar      1 <0>         0.0912
      4 C4          1.4194   -0.8092    0.7131 C.ar      1 <0>         0.0751
      5 C5          1.2730   -2.1818    0.7301 C.ar      1 <0>        -0.0478
      6 C6          0.2603   -2.7836   -0.0268 C.ar      1 <0>        -0.0703
      7 C7          0.1032   -4.2447   -0.0182 C.2       1 <0>        -0.0100
      8 C8          0.1782   -4.9253    1.1464 C.2       1 <0>        -0.1898
      9 C9          0.1810   -4.2239    2.3785 C.2       1 <0>         0.4866
     10 O1         -0.0168   -3.0238    2.3956 O.2       1 <0>        -0.4751
     11 O2          0.4030   -4.8876    3.5321 O.3       1 <0>        -0.3485
     12 C10         0.3917   -4.1178    4.7360 C.3       1 <0>         0.1089
     13 H1          0.7254   -3.1026    4.5212 H         1 <0>         0.1080
     14 C11         1.3317   -4.7579    5.7595 C.3       1 <0>        -0.0810
     15 C12         1.3195   -3.9336    7.0484 C.3       1 <0>         0.1061
     16 C13        -0.1010   -3.8943    7.6153 C.3       1 <0>        -0.1713
     17 C14        -1.0410   -3.2542    6.5918 C.3       1 <0>         0.0875
     18 H2         -2.0530   -3.2261    6.9956 H         1 <0>         0.0523
     19 C15        -1.0289   -4.0784    5.3028 C.3       1 <0>         0.0998
     20 H3         -1.3626   -5.0936    5.5176 H         1 <0>         0.0694
     21 O3         -1.9068   -3.4806    4.3469 O.3       1 <0>        -0.5440
     22 O4         -0.6034   -1.9233    6.3102 O.3       1 <0>        -0.5345
     23 C16         2.2454   -4.5641    8.0566 C.2       1 <0>         0.4475
     24 O5          2.4961   -5.7443    7.9913 O.co2     1 <0>        -0.6297
     25 O6          1.7571   -2.6027    6.7669 O.3       1 <0>        -0.5410
     26 O7          2.4056   -0.2217    1.4422 O.3       1 <0>        -0.4907
     27 O8          0.6961    1.3262   -0.0590 O.3       1 <0>        -0.4916
     28 H4         -1.3836   -2.4503   -1.3770 H         1 <0>         0.1287
     29 H5         -1.1175   -0.0082   -1.3889 H         1 <0>         0.1304
     30 H6          1.9404   -2.7902    1.3224 H         1 <0>         0.1241
     31 H7         -0.0721   -4.7744   -0.9429 H         1 <0>         0.1463
     32 H8          0.2360   -6.0038    1.1388 H         1 <0>         0.1444
     33 H9          0.9979   -5.7731    5.9743 H         1 <0>         0.0876
     34 H10         2.3437   -4.7859    5.3557 H         1 <0>         0.0792
     35 H11        -0.4348   -4.9094    7.8301 H         1 <0>         0.0783
     36 H12        -0.1097   -3.3071    8.5336 H         1 <0>         0.0764
     37 H13        -2.8265   -3.4226    4.6398 H         1 <0>         0.3683
     38 H14        -0.5861   -1.3431    7.0836 H         1 <0>         0.3693
     39 H15         1.7745   -2.0225    7.5403 H         1 <0>         0.3742
     40 H16         2.1428    0.0120    2.3430 H         1 <0>         0.3909
     41 H17         0.1863    1.7814    0.6250 H         1 <0>         0.3872
     42 O9          2.7915   -3.8146    9.0270 O.co2     1 <0>        -0.7583
@<TRIPOS>BOND
     1    1    6 ar
     2    1    2 ar
     3    1   28 1
     4    2    3 ar
     5    2   29 1
     6    3    4 ar
     7    3   27 1
     8    4    5 ar
     9    4   26 1
    10    5    6 ar
    11    5   30 1
    12    6    7 1
    13    7    8 2
    14    7   31 1
    15    8    9 1
    16    8   32 1
    17    9   10 2
    18    9   11 1
    19   11   12 1
    20   12   13 1
    21   12   19 1
    22   12   14 1
    23   14   15 1
    24   14   33 1
    25   14   34 1
    26   15   16 1
    27   15   23 1
    28   15   25 1
    29   16   17 1
    30   16   35 1
    31   16   36 1
    32   17   18 1
    33   17   19 1
    34   17   22 1
    35   19   20 1
    36   19   21 1
    37   21   37 1
    38   22   38 1
    39   23   24 2
    40   23   42 1
    41   25   39 1
    42   26   40 1
    43   27   41 1
@<TRIPOS>MOLECULE
ZINC22066339
   48    50     0     0     0
SMALL
USER_CHARGES
(2R,3R,4R,5R,6S)-6-[4-[(E)-2-(3,5-dihydroxyphenyl)vinyl]phenoxy]-3,4,5-trihydroxy-tetrahydropyran-2-carboxylic acid
@<TRIPOS>ATOM
      1 C1          6.3416    1.4549   -3.3065 C.ar      1 <0>        -0.0682
      2 C2          5.4868    1.8265   -2.2916 C.ar      1 <0>        -0.1520
      3 C3          4.1935    1.3216   -2.2501 C.ar      1 <0>         0.1445
      4 C4          3.7571    0.4363   -3.2274 C.ar      1 <0>        -0.1850
      5 C5          4.6028    0.0629   -4.2492 C.ar      1 <0>        -0.0656
      6 C6          5.9053    0.5683   -4.2952 C.ar      1 <0>        -0.1078
      7 C7          6.8156    0.1674   -5.3823 C.2       1 <0>        -0.0697
      8 C8          6.3943   -0.6843   -6.3310 C.2       1 <0>        -0.1416
      9 C9          7.3049   -1.0853   -7.4184 C.ar      1 <0>         0.0393
     10 C10         8.6047   -0.5762   -7.4674 C.ar      1 <0>        -0.2039
     11 C11         9.4580   -0.9600   -8.4881 C.ar      1 <0>         0.1981
     12 C12         9.0201   -1.8401   -9.4676 C.ar      1 <0>        -0.2672
     13 C13         7.7280   -2.3445   -9.4262 C.ar      1 <0>         0.1969
     14 C14         6.8690   -1.9712   -8.4065 C.ar      1 <0>        -0.2492
     15 O1          7.3053   -3.2067  -10.3879 O.3       1 <0>        -0.5120
     16 O2         10.7246   -0.4694   -8.5340 O.3       1 <0>        -0.5063
     17 O3          3.3544    1.6905   -1.2474 O.3       1 <0>        -0.3319
     18 C15         2.0383    1.1341   -1.2649 C.3       1 <0>         0.2464
     19 H1          2.1410    0.0431   -1.3608 H         1 <0>         0.1180
     20 C16         1.2864    1.5618   -0.0018 C.3       1 <0>         0.1264
     21 H2          1.7874    1.1976    0.9073 H         1 <0>         0.0759
     22 C17         1.1461    3.0871    0.0077 C.3       1 <0>         0.0987
     23 H3          2.1222    3.5821    0.1182 H         1 <0>         0.0686
     24 C18         0.4318    3.5311   -1.2725 C.3       1 <0>         0.0942
     25 H4         -0.6108    3.1811   -1.2943 H         1 <0>         0.0622
     26 C19         1.2167    3.0274   -2.4865 C.3       1 <0>         0.0208
     27 H5          2.2431    3.4229   -2.5012 H         1 <0>         0.0688
     28 O4          1.3371    1.6051   -2.4176 O.3       1 <0>        -0.3471
     29 C20         0.4888    3.4095   -3.7495 C.2       1 <0>         0.4772
     30 O5          0.0334    2.5511   -4.4676 O.co2     1 <0>        -0.6066
     31 O6          0.3463    4.7035   -4.0767 O.co2     1 <0>        -0.7502
     32 O7          0.3597    4.9578   -1.3088 O.3       1 <0>        -0.6090
     33 O8          0.3816    3.4897    1.1459 O.3       1 <0>        -0.6016
     34 O9         -0.0110    0.9628    0.0073 O.3       1 <0>        -0.5757
     35 H6          7.3469    1.8482   -3.3381 H         1 <0>         0.1303
     36 H7          5.8231    2.5111   -1.5271 H         1 <0>         0.1314
     37 H8          2.7519    0.0432   -3.1888 H         1 <0>         0.1416
     38 H9          4.2614   -0.6225   -5.0108 H         1 <0>         0.1280
     39 H10         7.8403    0.5659   -5.4166 H         1 <0>         0.1258
     40 H11         5.3696   -1.0828   -6.2967 H         1 <0>         0.1291
     41 H12         8.9449    0.1125   -6.7082 H         1 <0>         0.1315
     42 H13         9.6872   -2.1336  -10.2646 H         1 <0>         0.1287
     43 H14         5.8637   -2.3646   -8.3749 H         1 <0>         0.1295
     44 H15         6.2813   -3.6071  -10.3560 H         1 <0>         0.4359
     45 H16        11.4032   -0.7737   -9.3445 H         1 <0>         0.4327
     46 H17        -0.1223    5.4627   -2.1589 H         1 <0>         0.4310
     47 H18         0.1757    4.5560    1.3209 H         1 <0>         0.4182
     48 H19        -0.7002    1.1561    0.8425 H         1 <0>         0.4205
@<TRIPOS>BOND
     1    1    6 ar
     2    1    2 ar
     3    1   35 1
     4    2    3 ar
     5    2   36 1
     6    3    4 ar
     7    3   17 1
     8    4    5 ar
     9    4   37 1
    10    5    6 ar
    11    5   38 1
    12    6    7 1
    13    7    8 2
    14    7   39 1
    15    8    9 1
    16    8   40 1
    17    9   14 ar
    18    9   10 ar
    19   10   11 ar
    20   10   41 1
    21   11   12 ar
    22   11   16 1
    23   12   13 ar
    24   12   42 1
    25   13   14 ar
    26   13   15 1
    27   14   43 1
    28   15   44 1
    29   16   45 1
    30   17   18 1
    31   18   19 1
    32   18   28 1
    33   18   20 1
    34   20   21 1
    35   20   22 1
    36   20   34 1
    37   22   23 1
    38   22   24 1
    39   22   33 1
    40   24   25 1
    41   24   26 1
    42   24   32 1
    43   26   27 1
    44   26   28 1
    45   26   29 1
    46   29   30 2
    47   29   31 1
    48   32   46 1
    49   33   47 1
    50   34   48 1
@<TRIPOS>MOLECULE
ZINC39774367
   47    50     0     0     0
SMALL
USER_CHARGES

@<TRIPOS>ATOM
      1 C1         -0.0167    1.3795    0.0096 C.ar      1 <0>        -0.1223
      2 C2          1.1682    2.0941    0.0022 C.ar      1 <0>        -0.1229
      3 C3          2.3774    1.4307   -0.0134 C.ar      1 <0>        -0.1062
      4 C4          2.4040    0.0342   -0.0211 C.ar      1 <0>        -0.0216
      5 C5          1.2040   -0.6807   -0.0130 C.ar      1 <0>        -0.0913
      6 C6          0.0021   -0.0041    0.0020 C.ar      1 <0>        -0.1217
      7 C7          3.6931   -0.6823   -0.0382 C.2       1 <0>         0.0397
      8 N1          3.7143   -1.9795   -0.0453 N.2       1 <0>        -0.1891
      9 N2          4.9388   -2.6601   -0.0615 N.pl3     1 <0>        -0.6211
     10 C8          4.9627   -4.1249   -0.0695 C.3       1 <0>         0.5214
     11 H1          4.0706   -4.5098   -0.5636 H         1 <0>         0.1279
     12 N3          5.0351   -4.6337    1.3044 N.2       1 <0>        -0.4171
     13 C9          6.1180   -5.3198    1.4365 C.2       1 <0>         0.0872
     14 C10         6.8712   -5.3316    0.1556 C.2       1 <0>         0.4051
     15 N4          8.0101   -5.9910    0.1116 N.2       1 <0>        -0.5269
     16 C11         8.4885   -6.6353    1.1766 C.2       1 <0>         0.5440
     17 N5          7.8929   -6.6819    2.3543 N.2       1 <0>        -0.7286
     18 C12         6.7255   -6.0659    2.5780 C.2       1 <0>         0.5509
     19 O1          6.1816   -6.1128    3.6668 O.2       1 <0>        -0.5478
     20 N6          9.6817   -7.2958    1.0392 N.2       1 <0>        -0.7714
     21 N7          6.1678   -4.6049   -0.7608 N.pl3     1 <0>        -0.5897
     22 C13         6.5390   -4.3531   -2.1554 C.3       1 <0>         0.3488
     23 H2          6.6162   -5.2927   -2.7023 H         1 <0>         0.1043
     24 C14         7.8741   -3.5790   -2.2251 C.3       1 <0>         0.0776
     25 H3          8.7018   -4.2617   -2.4171 H         1 <0>         0.0956
     26 C15         7.6847   -2.6101   -3.4136 C.3       1 <0>         0.0447
     27 H4          8.4188   -2.8138   -4.1932 H         1 <0>         0.0838
     28 C16         6.2576   -2.9134   -3.9214 C.3       1 <0>         0.0510
     29 H5          6.2910   -3.6314   -4.7409 H         1 <0>         0.0884
     30 O2          5.5723   -3.4834   -2.7839 O.3       1 <0>        -0.3406
     31 C17         5.5673   -1.6244   -4.3718 C.3       1 <0>         0.0855
     32 O3          4.2966   -1.9395   -4.9445 O.3       1 <0>        -0.5617
     33 O4          7.7853   -1.2538   -2.9750 O.3       1 <0>        -0.5391
     34 O5          8.0959   -2.8532   -1.0143 O.3       1 <0>        -0.5248
     35 H6         -0.9606    1.9041    0.0260 H         1 <0>         0.1186
     36 H7          1.1461    3.1738    0.0081 H         1 <0>         0.1209
     37 H8          3.3014    1.9897   -0.0199 H         1 <0>         0.1226
     38 H9          1.2172   -1.7606   -0.0192 H         1 <0>         0.1318
     39 H10        -0.9265   -0.5555    0.0082 H         1 <0>         0.1216
     40 H11         4.6194   -0.1271   -0.0447 H         1 <0>         0.1075
     41 H12         5.7707   -2.1614   -0.0674 H         1 <0>         0.3868
     42 H13        10.0602   -7.7753    1.7926 H         1 <0>         0.3183
     43 H14         5.4261   -0.9686   -3.5127 H         1 <0>         0.0642
     44 H15         6.1861   -1.1214   -5.1150 H         1 <0>         0.0570
     45 H16         3.8019   -1.1680   -5.2528 H         1 <0>         0.3813
     46 H17         7.6741   -0.6027   -3.6812 H         1 <0>         0.3759
     47 H18         8.9208   -2.3487   -1.0036 H         1 <0>         0.3819
@<TRIPOS>BOND
     1    1    6 ar
     2    1    2 ar
     3    1   35 1
     4    2    3 ar
     5    2   36 1
     6    3    4 ar
     7    3   37 1
     8    4    5 ar
     9    4    7 1
    10    5    6 ar
    11    5   38 1
    12    6   39 1
    13    7    8 2
    14    7   40 1
    15    8    9 1
    16    9   10 1
    17    9   41 1
    18   10   11 1
    19   10   21 1
    20   10   12 1
    21   12   13 2
    22   13   18 1
    23   13   14 1
    24   14   15 2
    25   14   21 1
    26   15   16 1
    27   16   17 2
    28   16   20 1
    29   17   18 1
    30   18   19 2
    31   20   42 1
    32   21   22 1
    33   22   23 1
    34   22   30 1
    35   22   24 1
    36   24   25 1
    37   24   26 1
    38   24   34 1
    39   26   27 1
    40   26   28 1
    41   26   33 1
    42   28   29 1
    43   28   30 1
    44   28   31 1
    45   31   32 1
    46   31   43 1
    47   31   44 1
    48   32   45 1
    49   33   46 1
    50   34   47 1
@<TRIPOS>MOLECULE
ZINC44171737
   41    43     0     0     0
SMALL
USER_CHARGES

@<TRIPOS>ATOM
      1 C1         -0.0168    1.3844    0.0097 C.ar      1 <0>        -0.0653
      2 C2          1.1587    2.1029    0.0023 C.ar      1 <0>        -0.1263
      3 C3          2.3780    1.4333   -0.0130 C.ar      1 <0>         0.1315
      4 C4          2.3918    0.0262   -0.0207 C.ar      1 <0>        -0.1014
      5 C5          1.1889   -0.6821   -0.0137 C.ar      1 <0>        -0.0120
      6 C6          0.0021   -0.0041    0.0020 C.ar      1 <0>        -0.1336
      7 I1         -1.8026   -1.0680    0.0136 I         1 <0>        -0.0548
      8 C7          3.8046   -0.3675   -0.0363 C.2       1 <0>         0.0413
      9 C8          4.5283    0.7658   -0.0371 C.2       1 <0>        -0.0078
     10 N1          3.6888    1.8544   -0.0232 N.pl3     1 <0>        -0.5779
     11 H1          3.9769    2.7806   -0.0210 H         1 <0>         0.4233
     12 O1          4.2913   -1.6398   -0.0472 O.3       1 <0>        -0.2922
     13 C9          5.7122   -1.7908   -0.0617 C.3       1 <0>         0.2136
     14 H2          6.1441   -1.2471    0.7785 H         1 <0>         0.1073
     15 C10         6.0691   -3.2751    0.0529 C.3       1 <0>         0.0614
     16 H3          5.6341   -3.6850    0.9645 H         1 <0>         0.0804
     17 C11         5.5098   -4.0220   -1.1619 C.3       1 <0>         0.0850
     18 H4          5.8081   -5.0694   -1.1150 H         1 <0>         0.0728
     19 C12         6.0678   -3.3869   -2.4392 C.3       1 <0>         0.0911
     20 H5          7.1515   -3.5020   -2.4598 H         1 <0>         0.0891
     21 C13         5.7110   -1.8983   -2.4576 C.3       1 <0>         0.1091
     22 H6          4.6271   -1.7845   -2.4778 H         1 <0>         0.0964
     23 O2          6.2343   -1.2696   -1.2856 O.3       1 <0>        -0.3567
     24 C14         6.3160   -1.2439   -3.7012 C.3       1 <0>         0.0981
     25 O3          5.8870    0.1169   -3.7799 O.3       1 <0>        -0.7732
     26 S1          6.4319    0.8691   -4.9856 S.o2      1 <0>         2.7739
     27 O4          6.2137    2.2852   -4.7340 O.2       1 <0>        -1.0711
     28 O5          7.8470    0.5459   -5.0809 O.2       1 <0>        -1.0984
     29 O6          5.6887    0.4025   -6.1458 O.3       1 <0>        -1.0920
     30 O7          5.4975   -4.0301   -3.5808 O.3       1 <0>        -0.5426
     31 O8          4.0837   -3.9308   -1.1642 O.3       1 <0>        -0.5225
     32 O9          7.4898   -3.4229    0.0934 O.3       1 <0>        -0.5380
     33 H7         -0.9622    1.9061    0.0260 H         1 <0>         0.1303
     34 H8          1.1336    3.1826    0.0080 H         1 <0>         0.1310
     35 H9          1.1960   -1.7620   -0.0196 H         1 <0>         0.1304
     36 H10         5.6072    0.8136   -0.0469 H         1 <0>         0.1756
     37 H11         7.4036   -1.2788   -3.6375 H         1 <0>         0.0880
     38 H12         5.9867   -1.7806   -4.5909 H         1 <0>         0.0955
     39 H13         5.6808   -4.9782   -3.6305 H         1 <0>         0.3792
     40 H14         3.6641   -4.3092   -0.3794 H         1 <0>         0.3750
     41 H15         7.9114   -2.9704    0.8367 H         1 <0>         0.3863
@<TRIPOS>BOND
     1    1    6 ar
     2    1    2 ar
     3    1   33 1
     4    2    3 ar
     5    2   34 1
     6    3   10 1
     7    3    4 ar
     8    4    5 ar
     9    4    8 1
    10    5    6 ar
    11    5   35 1
    12    6    7 1
    13    8    9 2
    14    8   12 1
    15    9   10 1
    16    9   36 1
    17   10   11 1
    18   12   13 1
    19   13   14 1
    20   13   23 1
    21   13   15 1
    22   15   16 1
    23   15   17 1
    24   15   32 1
    25   17   18 1
    26   17   19 1
    27   17   31 1
    28   19   20 1
    29   19   21 1
    30   19   30 1
    31   21   22 1
    32   21   23 1
    33   21   24 1
    34   24   25 1
    35   24   37 1
    36   24   38 1
    37   25   26 1
    38   26   27 2
    39   26   28 2
    40   26   29 1
    41   30   39 1
    42   31   40 1
    43   32   41 1
@<TRIPOS>MOLECULE
ZINC65748619
   48    50     0     0     0
SMALL
USER_CHARGES

@<TRIPOS>ATOM
      1 C1         -0.1360    1.4271    0.5083 C.ar      1 <0>        -0.0589
      2 C2          1.0112    2.1811    0.6271 C.ar      1 <0>        -0.1515
      3 C3          2.2541    1.5957    0.4220 C.ar      1 <0>         0.1480
      4 C4          2.3470    0.2487    0.0960 C.ar      1 <0>        -0.1860
      5 C5          1.2054   -0.5134   -0.0254 C.ar      1 <0>        -0.0653
      6 C6         -0.0476    0.0710    0.1809 C.ar      1 <0>        -0.1188
      7 C7         -1.2712   -0.7397    0.0532 C.2       1 <0>        -0.0683
      8 C8         -2.3843   -0.1979   -0.4668 C.2       1 <0>        -0.1406
      9 C9         -2.3303    1.1322   -1.0995 C.ar      1 <0>        -0.0146
     10 C10        -1.2183    1.5019   -1.8598 C.ar      1 <0>        -0.1295
     11 C11        -1.1723    2.7526   -2.4521 C.ar      1 <0>         0.1231
     12 C12        -2.2285    3.6382   -2.2914 C.ar      1 <0>        -0.1763
     13 C13        -3.3351    3.2759   -1.5367 C.ar      1 <0>         0.1182
     14 C14        -3.3934    2.0251   -0.9455 C.ar      1 <0>        -0.1523
     15 O1         -4.3660    4.1479   -1.3822 O.3       1 <0>        -0.4971
     16 O2         -0.0908    3.1136   -3.1917 O.3       1 <0>        -0.4925
     17 O3          3.3823    2.3431    0.5402 O.3       1 <0>        -0.3322
     18 C15         4.6273    1.6784    0.3161 C.3       1 <0>         0.2032
     19 H1          4.6130    1.2003   -0.6633 H         1 <0>         0.1079
     20 C16         5.7676    2.6984    0.3697 C.3       1 <0>         0.1108
     21 H2          5.5935    3.4787   -0.3713 H         1 <0>         0.0704
     22 C17         5.8188    3.3224    1.7677 C.3       1 <0>         0.1213
     23 H3          4.8925    3.8639    1.9595 H         1 <0>         0.0833
     24 C18         5.9858    2.2088    2.8060 C.3       1 <0>         0.0678
     25 H4          5.9678    2.6388    3.8075 H         1 <0>         0.0626
     26 C19         4.8371    1.2076    2.6584 C.3       1 <0>        -0.0050
     27 H5          3.8902    1.7085    2.8599 H         1 <0>         0.0606
     28 O4          4.8275    0.6882    1.3269 O.3       1 <0>        -0.3293
     29 C20         5.0263    0.0776    3.6374 C.2       1 <0>         0.5064
     30 O5          4.9732    0.2942    4.8360 O.co2     1 <0>        -0.6887
     31 O6          5.2325   -1.0531    3.2308 O.co2     1 <0>        -0.6637
     32 O7          7.2320    1.5420    2.5950 O.3       1 <0>        -0.5290
     33 O8          6.9249    4.2237    1.8487 O.3       1 <0>        -0.5474
     34 O9          7.0072    2.0440    0.0918 O.3       1 <0>        -0.5032
     35 H6         -1.1016    1.8820    0.6723 H         1 <0>         0.1252
     36 H7          0.9439    3.2290    0.8796 H         1 <0>         0.1263
     37 H8          3.3155   -0.2020   -0.0628 H         1 <0>         0.1396
     38 H9          1.2786   -1.5606   -0.2792 H         1 <0>         0.1261
     39 H10        -1.2729   -1.7698    0.3778 H         1 <0>         0.1284
     40 H11        -3.3192   -0.7367   -0.4214 H         1 <0>         0.1292
     41 H12        -0.3957    0.8134   -1.9851 H         1 <0>         0.1360
     42 H13        -2.1889    4.6129   -2.7550 H         1 <0>         0.1313
     43 H14        -4.2572    1.7422   -0.3623 H         1 <0>         0.1315
     44 H15        -5.0504    4.0721   -2.0612 H         1 <0>         0.3892
     45 H16        -0.1631    2.8894   -4.1296 H         1 <0>         0.3887
     46 H17         7.4041    0.8232    3.2186 H         1 <0>         0.3744
     47 H18         7.0179    4.6558    2.7087 H         1 <0>         0.3752
     48 H19         7.0430    1.6221   -0.7776 H         1 <0>         0.3653
@<TRIPOS>BOND
     1    1    6 ar
     2    1    2 ar
     3    1   35 1
     4    2    3 ar
     5    2   36 1
     6    3    4 ar
     7    3   17 1
     8    4    5 ar
     9    4   37 1
    10    5    6 ar
    11    5   38 1
    12    6    7 1
    13    7    8 2
    14    7   39 1
    15    8    9 1
    16    8   40 1
    17    9   14 ar
    18    9   10 ar
    19   10   11 ar
    20   10   41 1
    21   11   12 ar
    22   11   16 1
    23   12   13 ar
    24   12   42 1
    25   13   14 ar
    26   13   15 1
    27   14   43 1
    28   15   44 1
    29   16   45 1
    30   17   18 1
    31   18   19 1
    32   18   28 1
    33   18   20 1
    34   20   21 1
    35   20   22 1
    36   20   34 1
    37   22   23 1
    38   22   24 1
    39   22   33 1
    40   24   25 1
    41   24   26 1
    42   24   32 1
    43   26   27 1
    44   26   28 1
    45   26   29 1
    46   29   30 2
    47   29   31 1
    48   32   46 1
    49   33   47 1
    50   34   48 1
@<TRIPOS>MOLECULE
ZINC22066336
   48    50     0     0     0
SMALL
USER_CHARGES
(2S,3R,4S,5R,6S)-6-[4-[(E)-2-(3,5-dihydroxyphenyl)vinyl]phenoxy]-3,4,5-trihydroxy-tetrahydropyran-2-carboxylic acid
@<TRIPOS>ATOM
      1 C1         -0.1030    4.3147    0.0204 C.ar      1 <0>        -0.0649
      2 C2         -0.1166    5.6925    0.0332 C.ar      1 <0>        -0.1837
      3 C3          1.0781    6.4011    0.0252 C.ar      1 <0>         0.1478
      4 C4          2.2915    5.7253    0.0104 C.ar      1 <0>        -0.1530
      5 C5          2.3153    4.3476    0.0033 C.ar      1 <0>        -0.0668
      6 C6          1.1157    3.6301    0.0109 C.ar      1 <0>        -0.1111
      7 C7          1.1356    2.1568    0.0028 C.2       1 <0>        -0.0678
      8 C8         -0.0179    1.4697    0.0101 C.2       1 <0>        -0.1438
      9 C9          0.0021   -0.0041    0.0020 C.ar      1 <0>         0.0401
     10 C10         1.2197   -0.6882   -0.0191 C.ar      1 <0>        -0.2043
     11 C11         1.2333   -2.0728   -0.0214 C.ar      1 <0>         0.1980
     12 C12         0.0397   -2.7806   -0.0142 C.ar      1 <0>        -0.2676
     13 C13        -1.1726   -2.1055    0.0015 C.ar      1 <0>         0.1971
     14 C14        -1.1966   -0.7211    0.0096 C.ar      1 <0>        -0.2495
     15 O1         -2.3382   -2.8043    0.0093 O.3       1 <0>        -0.5122
     16 O2          2.4174   -2.7396   -0.0363 O.3       1 <0>        -0.5064
     17 O3          1.0597    7.7595    0.0322 O.3       1 <0>        -0.2868
     18 C15        -0.2222    8.3909    0.0473 C.3       1 <0>         0.2648
     19 H1         -0.7999    7.9482    0.8721 H         1 <0>         0.0649
     20 C16        -0.0437    9.9056    0.1791 C.3       1 <0>         0.1233
     21 H2          0.6245   10.3014   -0.5999 H         1 <0>         0.0863
     22 C17        -1.4185   10.5797    0.1340 C.3       1 <0>         0.1008
     23 H3         -2.0242   10.3217    1.0152 H         1 <0>         0.0739
     24 C18        -2.1243   10.1886   -1.1680 C.3       1 <0>         0.0774
     25 H4         -3.1153   10.6595   -1.2468 H         1 <0>         0.0750
     26 C19        -2.2224    8.6629   -1.2477 C.3       1 <0>         0.0237
     27 H5         -2.7885    8.2459   -0.4017 H         1 <0>         0.0651
     28 O4         -0.9122    8.0979   -1.1693 O.3       1 <0>        -0.3579
     29 C20        -2.8627    8.2680   -2.5535 C.2       1 <0>         0.4745
     30 O5         -2.2281    7.6496   -3.3749 O.co2     1 <0>        -0.6000
     31 O6         -4.1381    8.6033   -2.8040 O.co2     1 <0>        -0.7528
     32 O7         -1.3765   10.6791   -2.2825 O.3       1 <0>        -0.5818
     33 O8         -1.2569   11.9987    0.1826 O.3       1 <0>        -0.5882
     34 O9          0.5957   10.2049    1.4215 O.3       1 <0>        -0.5894
     35 H6         -1.0324    3.7646    0.0221 H         1 <0>         0.1270
     36 H7         -1.0576    6.2223    0.0451 H         1 <0>         0.1328
     37 H8          3.2178    6.2805    0.0042 H         1 <0>         0.1317
     38 H9          3.2592    3.8230   -0.0085 H         1 <0>         0.1301
     39 H10         2.0956    1.6198   -0.0092 H         1 <0>         0.1256
     40 H11        -0.9779    2.0067    0.0221 H         1 <0>         0.1287
     41 H12         2.1491   -0.1382   -0.0296 H         1 <0>         0.1314
     42 H13         0.0544   -3.8605   -0.0205 H         1 <0>         0.1286
     43 H14        -2.1406   -0.1966    0.0222 H         1 <0>         0.1295
     44 H15        -3.2997   -2.2701    0.0217 H         1 <0>         0.4362
     45 H16         2.4292   -3.8395   -0.0381 H         1 <0>         0.4326
     46 H17        -1.7312   10.4939   -3.3072 H         1 <0>         0.4154
     47 H18        -2.1402   12.6539    0.1600 H         1 <0>         0.4114
     48 H19         0.8085   11.2494    1.6930 H         1 <0>         0.4143
@<TRIPOS>BOND
     1    1    6 ar
     2    1    2 ar
     3    1   35 1
     4    2    3 ar
     5    2   36 1
     6    3    4 ar
     7    3   17 1
     8    4    5 ar
     9    4   37 1
    10    5    6 ar
    11    5   38 1
    12    6    7 1
    13    7    8 2
    14    7   39 1
    15    8    9 1
    16    8   40 1
    17    9   14 ar
    18    9   10 ar
    19   10   11 ar
    20   10   41 1
    21   11   12 ar
    22   11   16 1
    23   12   13 ar
    24   12   42 1
    25   13   14 ar
    26   13   15 1
    27   14   43 1
    28   15   44 1
    29   16   45 1
    30   17   18 1
    31   18   19 1
    32   18   28 1
    33   18   20 1
    34   20   21 1
    35   20   22 1
    36   20   34 1
    37   22   23 1
    38   22   24 1
    39   22   33 1
    40   24   25 1
    41   24   26 1
    42   24   32 1
    43   26   27 1
    44   26   28 1
    45   26   29 1
    46   29   30 2
    47   29   31 1
    48   32   46 1
    49   33   47 1
    50   34   48 1
@<TRIPOS>MOLECULE
ZINC35653090
   48    50     0     0     0
SMALL
USER_CHARGES

@<TRIPOS>ATOM
      1 C1         -0.1360    1.4271    0.5083 C.ar      1 <0>        -0.0577
      2 C2          1.0112    2.1811    0.6271 C.ar      1 <0>        -0.1512
      3 C3          2.2541    1.5957    0.4220 C.ar      1 <0>         0.1506
      4 C4          2.3470    0.2487    0.0960 C.ar      1 <0>        -0.1977
      5 C5          1.2054   -0.5134   -0.0254 C.ar      1 <0>        -0.0660
      6 C6         -0.0476    0.0710    0.1809 C.ar      1 <0>        -0.1238
      7 C7         -1.2712   -0.7397    0.0532 C.2       1 <0>        -0.0735
      8 C8         -2.3843   -0.1979   -0.4668 C.2       1 <0>        -0.1355
      9 C9         -2.3303    1.1322   -1.0995 C.ar      1 <0>        -0.0195
     10 C10        -1.2183    1.5019   -1.8598 C.ar      1 <0>        -0.1290
     11 C11        -1.1723    2.7526   -2.4521 C.ar      1 <0>         0.1298
     12 C12        -2.2285    3.6382   -2.2914 C.ar      1 <0>        -0.1758
     13 C13        -3.3351    3.2759   -1.5367 C.ar      1 <0>         0.1155
     14 C14        -3.3934    2.0251   -0.9455 C.ar      1 <0>        -0.1552
     15 O1         -4.3660    4.1479   -1.3822 O.3       1 <0>        -0.4980
     16 O2         -0.0908    3.1136   -3.1917 O.3       1 <0>        -0.4873
     17 O3          3.3823    2.3431    0.5402 O.3       1 <0>        -0.2917
     18 C15         4.6273    1.6784    0.3161 C.3       1 <0>         0.2059
     19 H1          4.6620    0.7629    0.9066 H         1 <0>         0.0988
     20 C16         5.7789    2.5977    0.7314 C.3       1 <0>         0.1064
     21 H2          6.7270    2.0765    0.5988 H         1 <0>         0.1021
     22 C17         5.7592    3.8549   -0.1435 C.3       1 <0>         0.1236
     23 H3          6.6097    4.4881    0.1089 H         1 <0>         0.0678
     24 C18         5.8478    3.4406   -1.6155 C.3       1 <0>         0.0631
     25 H4          5.7788    4.3258   -2.2478 H         1 <0>         0.0732
     26 C19         4.6936    2.4888   -1.9401 C.3       1 <0>        -0.0005
     27 H5          3.7448    3.0064   -1.7987 H         1 <0>         0.0737
     28 O4          4.7527    1.3561   -1.0705 O.3       1 <0>        -0.3393
     29 C20         4.8075    2.0303   -3.3712 C.2       1 <0>         0.5047
     30 O5          5.0186    0.8555   -3.6199 O.co2     1 <0>        -0.6671
     31 O6          4.6886    2.8341   -4.2801 O.co2     1 <0>        -0.6877
     32 O7          7.0933    2.7810   -1.8518 O.3       1 <0>        -0.5618
     33 O8          4.5447    4.5740    0.0802 O.3       1 <0>        -0.5270
     34 O9          5.6246    2.9666    2.1032 O.3       1 <0>        -0.5446
     35 H6         -1.1016    1.8820    0.6723 H         1 <0>         0.1238
     36 H7          0.9439    3.2290    0.8796 H         1 <0>         0.1262
     37 H8          3.3155   -0.2020   -0.0628 H         1 <0>         0.1338
     38 H9          1.2786   -1.5606   -0.2792 H         1 <0>         0.1230
     39 H10        -1.2729   -1.7698    0.3778 H         1 <0>         0.1255
     40 H11        -3.3192   -0.7367   -0.4214 H         1 <0>         0.1274
     41 H12        -0.3957    0.8134   -1.9851 H         1 <0>         0.1365
     42 H13        -2.1889    4.6129   -2.7550 H         1 <0>         0.1318
     43 H14        -4.2572    1.7422   -0.3623 H         1 <0>         0.1293
     44 H15        -5.0504    4.0721   -2.0612 H         1 <0>         0.3880
     45 H16        -0.1631    2.8894   -4.1296 H         1 <0>         0.3935
     46 H17         7.2173    2.4905   -2.7658 H         1 <0>         0.3903
     47 H18         4.4649    5.3835   -0.4427 H         1 <0>         0.3720
     48 H19         5.6237    2.2172    2.7144 H         1 <0>         0.3736
@<TRIPOS>BOND
     1    1    6 ar
     2    1    2 ar
     3    1   35 1
     4    2    3 ar
     5    2   36 1
     6    3    4 ar
     7    3   17 1
     8    4    5 ar
     9    4   37 1
    10    5    6 ar
    11    5   38 1
    12    6    7 1
    13    7    8 2
    14    7   39 1
    15    8    9 1
    16    8   40 1
    17    9   14 ar
    18    9   10 ar
    19   10   11 ar
    20   10   41 1
    21   11   12 ar
    22   11   16 1
    23   12   13 ar
    24   12   42 1
    25   13   14 ar
    26   13   15 1
    27   14   43 1
    28   15   44 1
    29   16   45 1
    30   17   18 1
    31   18   19 1
    32   18   28 1
    33   18   20 1
    34   20   21 1
    35   20   22 1
    36   20   34 1
    37   22   23 1
    38   22   24 1
    39   22   33 1
    40   24   25 1
    41   24   26 1
    42   24   32 1
    43   26   27 1
    44   26   28 1
    45   26   29 1
    46   29   30 2
    47   29   31 1
    48   32   46 1
    49   33   47 1
    50   34   48 1
@<TRIPOS>MOLECULE
ZINC39774356
   50    54     0     0     0
SMALL
USER_CHARGES

@<TRIPOS>ATOM
      1 C1         -0.0169    1.3923    0.0097 C.ar      1 <0>        -0.0774
      2 C2          1.1684    2.0979    0.0022 C.ar      1 <0>        -0.0998
      3 C3          2.3813    1.4255   -0.0131 C.ar      1 <0>         0.0323
      4 C4          2.4075    0.0310   -0.0209 C.ar      1 <0>         0.0288
      5 C5          1.2236   -0.6821   -0.0140 C.ar      1 <0>        -0.0821
      6 C6          0.0021   -0.0041    0.0020 C.ar      1 <0>        -0.0159
      7 C7         -1.2637   -0.7608    0.0098 C.2       1 <0>         0.0570
      8 N1         -2.3970   -0.1293    0.0238 N.2       1 <0>        -0.1946
      9 N2         -3.5995   -0.8482    0.0311 N.pl3     1 <0>        -0.6340
     10 C8         -4.8792   -0.1351    0.0469 C.3       1 <0>         0.5170
     11 H1         -4.7749    0.8293   -0.4501 H         1 <0>         0.1321
     12 N3         -5.3295    0.0582    1.4296 N.2       1 <0>        -0.4149
     13 C9         -6.4631   -0.5351    1.5839 C.2       1 <0>         0.0882
     14 C10        -6.8749   -1.1823    0.3111 C.2       1 <0>         0.3838
     15 N4         -8.0168   -1.8377    0.2895 N.2       1 <0>        -0.5122
     16 C11        -8.7936   -1.9281    1.3697 C.2       1 <0>         0.5388
     17 N5         -8.5132   -1.3882    2.5417 N.2       1 <0>        -0.7268
     18 C12        -7.3911   -0.6863    2.7434 C.2       1 <0>         0.5499
     19 O1         -7.1385   -0.1910    3.8271 O.2       1 <0>        -0.5462
     20 N6         -9.9653   -2.6300    1.2552 N.2       1 <0>        -0.7634
     21 N7         -5.9113   -0.9383   -0.6240 N.pl3     1 <0>        -0.6000
     22 C13        -5.9060   -1.3870   -2.0186 C.3       1 <0>         0.3540
     23 H2         -5.0576   -0.9565   -2.5506 H         1 <0>         0.1133
     24 C14        -5.8539   -2.9341   -2.0856 C.3       1 <0>         0.0735
     25 H3         -6.4515   -3.3820   -1.2917 H         1 <0>         0.1051
     26 C15        -6.4912   -3.1905   -3.4785 C.3       1 <0>         0.0468
     27 H4         -6.9760   -4.1662   -3.5095 H         1 <0>         0.0896
     28 C16        -7.5334   -2.0557   -3.5758 C.3       1 <0>         0.0596
     29 H5         -8.5183   -2.4338   -3.3016 H         1 <0>         0.1054
     30 O2         -7.1364   -1.0227   -2.6643 O.3       1 <0>        -0.3451
     31 C17        -7.5682   -1.5039   -5.0023 C.3       1 <0>         0.0679
     32 O3         -8.6139   -0.5363   -5.1134 O.3       1 <0>        -0.5581
     33 O4         -5.5128   -3.0781   -4.5139 O.3       1 <0>        -0.5409
     34 O5         -4.5060   -3.4065   -2.0402 O.3       1 <0>        -0.5373
     35 O6          3.7093   -0.3803   -0.0354 O.3       1 <0>        -0.3097
     36 C18         4.4710    0.7693   -0.4492 C.3       1 <0>         0.2135
     37 O7          3.6671    1.8847   -0.0224 O.3       1 <0>        -0.3101
     38 H6         -0.9592    1.9196    0.0260 H         1 <0>         0.1495
     39 H7          1.1519    3.1778    0.0078 H         1 <0>         0.1376
     40 H8          1.2426   -1.7619   -0.0201 H         1 <0>         0.1390
     41 H9         -1.2473   -1.8407    0.0038 H         1 <0>         0.1164
     42 H10        -3.5848   -1.8181    0.0258 H         1 <0>         0.3847
     43 H11       -10.5555   -2.7167    2.0201 H         1 <0>         0.3197
     44 H12        -6.6123   -1.0338   -5.2335 H         1 <0>         0.0593
     45 H13        -7.7512   -2.3187   -5.7028 H         1 <0>         0.0536
     46 H14        -8.6945   -0.1435   -5.9934 H         1 <0>         0.3775
     47 H15        -5.8617   -3.2296   -5.4029 H         1 <0>         0.3773
     48 H16        -4.4251   -4.3693   -2.0795 H         1 <0>         0.3839
     49 H17         5.4414    0.7845    0.0470 H         1 <0>         0.1300
     50 H18         4.5934    0.7778   -1.5323 H         1 <0>         0.0831
@<TRIPOS>BOND
     1    1    6 ar
     2    1    2 ar
     3    1   38 1
     4    2    3 ar
     5    2   39 1
     6    3   37 1
     7    3    4 ar
     8    4    5 ar
     9    4   35 1
    10    5    6 ar
    11    5   40 1
    12    6    7 1
    13    7    8 2
    14    7   41 1
    15    8    9 1
    16    9   10 1
    17    9   42 1
    18   10   11 1
    19   10   21 1
    20   10   12 1
    21   12   13 2
    22   13   18 1
    23   13   14 1
    24   14   15 2
    25   14   21 1
    26   15   16 1
    27   16   17 2
    28   16   20 1
    29   17   18 1
    30   18   19 2
    31   20   43 1
    32   21   22 1
    33   22   23 1
    34   22   30 1
    35   22   24 1
    36   24   25 1
    37   24   26 1
    38   24   34 1
    39   26   27 1
    40   26   28 1
    41   26   33 1
    42   28   29 1
    43   28   30 1
    44   28   31 1
    45   31   32 1
    46   31   44 1
    47   31   45 1
    48   32   46 1
    49   33   47 1
    50   34   48 1
    51   35   36 1
    52   36   37 1
    53   36   49 1
    54   36   50 1
@<TRIPOS>MOLECULE
ZINC44699305
   46    48     0     0     0
SMALL
USER_CHARGES

@<TRIPOS>ATOM
      1 C1         -0.0184    1.5028    0.0103 C.3       1 <0>        -0.1293
      2 C2          0.0021   -0.0041    0.0020 C.2       1 <0>         0.0502
      3 C3          0.0061   -0.6954   -1.1674 C.2       1 <0>        -0.2793
      4 C4          0.0259   -2.1051   -1.1488 C.2       1 <0>         0.5136
      5 O1          0.0297   -2.7124   -2.2045 O.2       1 <0>        -0.4758
      6 O2          0.0411   -2.7950    0.0025 O.3       1 <0>        -0.2707
      7 C5          0.0380   -2.1693    1.1991 C.ar      1 <0>         0.1854
      8 C6          0.0243   -0.7629    1.2543 C.ar      1 <0>        -0.1983
      9 C7          0.0261   -0.1105    2.4922 C.ar      1 <0>        -0.0154
     10 C8          0.0465   -0.8421    3.6444 C.ar      1 <0>        -0.2017
     11 C9          0.0655   -2.2344    3.5961 C.ar      1 <0>         0.2004
     12 C10         0.0533   -2.8969    2.3791 C.ar      1 <0>        -0.1771
     13 O3          0.0862   -2.9478    4.7507 O.3       1 <0>        -0.3071
     14 C11         0.0871   -2.2057    5.9719 C.3       1 <0>         0.2238
     15 H1          0.8633   -1.4416    5.9323 H         1 <0>         0.1455
     16 C12         0.3612   -3.1517    7.1440 C.3       1 <0>         0.1690
     17 H2          0.4022   -2.5803    8.0713 H         1 <0>         0.1184
     18 C13        -0.7654   -4.1860    7.2294 C.3       1 <0>         0.1121
     19 H3         -0.7749   -4.7906    6.3225 H         1 <0>         0.0765
     20 C14        -2.1043   -3.4558    7.3726 C.3       1 <0>         0.0475
     21 H4         -2.1131   -2.8906    8.3046 H         1 <0>         0.0808
     22 C15        -2.2832   -2.4981    6.1917 C.3       1 <0>         0.0573
     23 H5         -2.3149   -3.0680    5.2631 H         1 <0>         0.0841
     24 O4         -1.1863   -1.5826    6.1519 O.3       1 <0>        -0.3628
     25 C16        -3.5906   -1.7211    6.3585 C.3       1 <0>         0.0835
     26 O5         -3.8156   -0.9134    5.2013 O.3       1 <0>        -0.5584
     27 O6         -3.1693   -4.4086    7.3819 O.3       1 <0>        -0.5551
     28 O7         -0.5551   -5.0293    8.3638 O.3       1 <0>        -0.5377
     29 N1          1.6398   -3.8349    6.9330 N.pl3     1 <0>        -1.1227
     30 S1          3.0237   -3.2304    7.6125 S.o2      1 <0>         2.7753
     31 O8          4.1246   -4.0482    7.1274 O.2       1 <0>        -1.0793
     32 O9          3.1400   -1.8479    7.1751 O.2       1 <0>        -1.0886
     33 O10         2.8655   -3.3325    9.0549 O.3       1 <0>        -1.0809
     34 H6          1.0042    1.8801    0.0026 H         1 <0>         0.0915
     35 H7         -0.5455    1.8639   -0.8728 H         1 <0>         0.0818
     36 H8         -0.5286    1.8543    0.9071 H         1 <0>         0.0819
     37 H9         -0.0061   -0.1665   -2.1090 H         1 <0>         0.1590
     38 H10         0.0118    0.9686    2.5359 H         1 <0>         0.1422
     39 H11         0.0483   -0.3384    4.5997 H         1 <0>         0.1490
     40 H12         0.0678   -3.9764    2.3498 H         1 <0>         0.1513
     41 H13        -4.4169   -2.4218    6.4787 H         1 <0>         0.0601
     42 H14        -3.5242   -1.0830    7.2396 H         1 <0>         0.0596
     43 H15        -4.6290   -0.3918    5.2378 H         1 <0>         0.3794
     44 H16        -4.0482   -4.0152    7.4701 H         1 <0>         0.3788
     45 H17        -1.2328   -5.7093    8.4794 H         1 <0>         0.3795
     46 H18         1.6758   -4.6414    6.3952 H         1 <0>         0.4025
@<TRIPOS>BOND
     1    1    2 1
     2    1   34 1
     3    1   35 1
     4    1   36 1
     5    2    8 1
     6    2    3 2
     7    3    4 1
     8    3   37 1
     9    4    5 2
    10    4    6 1
    11    6    7 1
    12    7   12 ar
    13    7    8 ar
    14    8    9 ar
    15    9   10 ar
    16    9   38 1
    17   10   11 ar
    18   10   39 1
    19   11   12 ar
    20   11   13 1
    21   12   40 1
    22   13   14 1
    23   14   15 1
    24   14   24 1
    25   14   16 1
    26   16   17 1
    27   16   18 1
    28   16   29 1
    29   18   19 1
    30   18   20 1
    31   18   28 1
    32   20   21 1
    33   20   22 1
    34   20   27 1
    35   22   23 1
    36   22   24 1
    37   22   25 1
    38   25   26 1
    39   25   41 1
    40   25   42 1
    41   26   43 1
    42   27   44 1
    43   28   45 1
    44   29   30 1
    45   29   46 1
    46   30   31 2
    47   30   32 2
    48   30   33 1
@<TRIPOS>MOLECULE
ZINC65748625
   48    50     0     0     0
SMALL
USER_CHARGES

@<TRIPOS>ATOM
      1 C1         -0.0169    1.3936    0.0097 C.ar      1 <0>        -0.0671
      2 C2          1.1682    2.0965    0.0022 C.ar      1 <0>        -0.1518
      3 C3          2.3804    1.4185   -0.0131 C.ar      1 <0>         0.1473
      4 C4          2.4043    0.0297   -0.0212 C.ar      1 <0>        -0.1821
      5 C5          1.2244   -0.6820   -0.0142 C.ar      1 <0>        -0.0651
      6 C6          0.0021   -0.0041    0.0020 C.ar      1 <0>        -0.1092
      7 C7         -1.2624   -0.7604    0.0105 C.2       1 <0>        -0.0705
      8 C8         -1.2417   -2.1029    0.0031 C.2       1 <0>        -0.1374
      9 C9         -2.5067   -2.8595    0.0116 C.ar      1 <0>        -0.0077
     10 C10        -3.7282   -2.1821    0.0216 C.ar      1 <0>        -0.1542
     11 C11        -4.9138   -2.8974    0.0296 C.ar      1 <0>         0.1252
     12 C12        -4.8898   -4.2848    0.0277 C.ar      1 <0>        -0.1796
     13 C13        -3.6788   -4.9623    0.0183 C.ar      1 <0>         0.1254
     14 C14        -2.4878   -4.2561    0.0039 C.ar      1 <0>        -0.1468
     15 O1         -3.6617   -6.3213    0.0174 O.3       1 <0>        -0.4974
     16 O2         -6.1029   -2.2395    0.0398 O.3       1 <0>        -0.4975
     17 O3          3.5463    2.1158   -0.0204 O.3       1 <0>        -0.2965
     18 C15         4.7565    1.3561   -0.0361 C.3       1 <0>         0.2202
     19 H1          4.7207    0.5992    0.7474 H         1 <0>         0.0643
     20 C16         5.9470    2.2872    0.2076 C.3       1 <0>         0.1042
     21 H2          5.9598    3.0686   -0.5522 H         1 <0>         0.0908
     22 C17         7.2441    1.4761    0.1296 C.3       1 <0>         0.1275
     23 H3          7.2535    0.7266    0.9210 H         1 <0>         0.0745
     24 C18         7.3182    0.7824   -1.2341 C.3       1 <0>         0.0624
     25 H4          8.2111    0.1587   -1.2774 H         1 <0>         0.0787
     26 C19         6.0748   -0.0906   -1.4221 C.3       1 <0>        -0.0040
     27 H5          6.0563   -0.8666   -0.6568 H         1 <0>         0.0628
     28 O4          4.9033    0.7197   -1.3071 O.3       1 <0>        -0.3466
     29 C20         6.1116   -0.7306   -2.7860 C.2       1 <0>         0.5055
     30 O5          6.9857   -1.5358   -3.0581 O.co2     1 <0>        -0.6841
     31 O6          5.2672   -0.4432   -3.6172 O.co2     1 <0>        -0.6563
     32 O7          7.3728    1.7670   -2.2683 O.3       1 <0>        -0.5479
     33 O8          8.3642    2.3496    0.2851 O.3       1 <0>        -0.5427
     34 O9          5.8312    2.8817    1.5020 O.3       1 <0>        -0.5525
     35 H6         -0.9588    1.9217    0.0260 H         1 <0>         0.1305
     36 H7          1.1546    3.1764    0.0077 H         1 <0>         0.1326
     37 H8          3.3492   -0.4932   -0.0334 H         1 <0>         0.1320
     38 H9          1.2440   -1.7618   -0.0209 H         1 <0>         0.1278
     39 H10        -2.2059   -0.2349    0.0227 H         1 <0>         0.1222
     40 H11        -0.2983   -2.6284   -0.0091 H         1 <0>         0.1275
     41 H12        -3.7479   -1.1023    0.0234 H         1 <0>         0.1348
     42 H13        -5.8166   -4.8392    0.0340 H         1 <0>         0.1330
     43 H14        -1.5459   -4.7843   -0.0083 H         1 <0>         0.1350
     44 H15        -3.6634   -6.7141   -0.8663 H         1 <0>         0.3928
     45 H16        -6.4539   -2.0477   -0.8406 H         1 <0>         0.3922
     46 H17         7.4212    1.3977   -3.1607 H         1 <0>         0.3866
     47 H18         9.2205    1.9020    0.2460 H         1 <0>         0.3787
     48 H19         5.0288    3.4076    1.6229 H         1 <0>         0.3822
@<TRIPOS>BOND
     1    1    6 ar
     2    1    2 ar
     3    1   35 1
     4    2    3 ar
     5    2   36 1
     6    3    4 ar
     7    3   17 1
     8    4    5 ar
     9    4   37 1
    10    5    6 ar
    11    5   38 1
    12    6    7 1
    13    7    8 2
    14    7   39 1
    15    8    9 1
    16    8   40 1
    17    9   14 ar
    18    9   10 ar
    19   10   11 ar
    20   10   41 1
    21   11   12 ar
    22   11   16 1
    23   12   13 ar
    24   12   42 1
    25   13   14 ar
    26   13   15 1
    27   14   43 1
    28   15   44 1
    29   16   45 1
    30   17   18 1
    31   18   19 1
    32   18   28 1
    33   18   20 1
    34   20   21 1
    35   20   22 1
    36   20   34 1
    37   22   23 1
    38   22   24 1
    39   22   33 1
    40   24   25 1
    41   24   26 1
    42   24   32 1
    43   26   27 1
    44   26   28 1
    45   26   29 1
    46   29   30 2
    47   29   31 1
    48   32   46 1
    49   33   47 1
    50   34   48 1
@<TRIPOS>MOLECULE
ZINC10602854
   57    59     0     0     0
SMALL
USER_CHARGES
cyclohexylcarbamoylcarbamoylmethyl 3-(2-furylmethylsulfamoyl)benzoate
@<TRIPOS>ATOM
      1 C1          0.3496    7.7209    0.0388 C.ar      1 <0>        -0.1466
      2 C2          0.5417    6.3547    0.0252 C.ar      1 <0>        -0.0031
      3 C3          1.8375    5.8353    0.0159 C.ar      1 <0>        -0.1452
      4 C4          2.9310    6.7038    0.0101 C.ar      1 <0>         0.0482
      5 C5          2.7246    8.0675    0.0189 C.ar      1 <0>        -0.6926
      6 C6          1.4375    8.5756    0.0334 C.ar      1 <0>         0.0133
      7 S1          4.1029    9.1652    0.0110 S.o2      1 <0>         2.6972
      8 O1          3.6501   10.3896    0.5724 O.2       1 <0>        -0.9453
      9 O2          5.2017    8.4413    0.5477 O.2       1 <0>        -0.9455
     10 N1          4.4706    9.4782   -1.5730 N.pl3     1 <0>        -1.1145
     11 C7          3.5147   10.1977   -2.4185 C.3       1 <0>         0.1988
     12 C8          4.2090   10.6741   -3.6683 C.2       1 <0>        -0.0353
     13 C9          4.3111    9.9889   -4.8213 C.2       1 <0>        -0.1820
     14 C10         5.0367   10.8046   -5.7197 C.2       1 <0>        -0.2187
     15 C11         5.3345   11.9395   -5.0619 C.2       1 <0>        -0.0244
     16 O3          4.8257   11.8573   -3.8217 O.3       1 <0>        -0.1692
     17 C12         2.0509    4.3736    0.0060 C.2       1 <0>         0.5154
     18 O4          3.1795    3.9246   -0.0072 O.2       1 <0>        -0.4939
     19 O5          0.9939    3.5385    0.0116 O.3       1 <0>        -0.3281
     20 C13         1.2785    2.1147    0.0012 C.3       1 <0>         0.0527
     21 C14        -0.0162    1.3436    0.0094 C.2       1 <0>         0.5194
     22 O6         -1.0742    1.9354    0.0177 O.2       1 <0>        -0.4399
     23 N2          0.0021   -0.0041    0.0020 N.am      1 <0>        -0.6886
     24 C15        -1.1558   -0.6938    0.0094 C.2       1 <0>         0.6962
     25 O7         -2.2165   -0.1005    0.0227 O.2       1 <0>        -0.5244
     26 N3         -1.1375   -2.0414    0.0020 N.am      1 <0>        -0.7323
     27 C16        -2.3962   -2.7911    0.0099 C.3       1 <0>         0.1602
     28 C17        -2.8849   -2.9518    1.4508 C.3       1 <0>        -0.1311
     29 C18        -4.1994   -3.7347    1.4592 C.3       1 <0>        -0.1180
     30 C19        -3.9744   -5.1156    0.8400 C.3       1 <0>        -0.1232
     31 C20        -3.4857   -4.9549   -0.6009 C.3       1 <0>        -0.1166
     32 C21        -2.1712   -4.1720   -0.6093 C.3       1 <0>        -0.1259
     33 H1         -0.6523    8.1240    0.0498 H         1 <0>         0.1480
     34 H2         -0.3084    5.6886    0.0252 H         1 <0>         0.1528
     35 H3          3.9361    6.3086   -0.0009 H         1 <0>         0.1576
     36 H4          1.2815    9.6442    0.0403 H         1 <0>         0.1515
     37 H5          5.3188    9.1850   -1.9411 H         1 <0>         0.4250
     38 H6          2.6958    9.5313   -2.6893 H         1 <0>         0.0987
     39 H7          3.1203   11.0548   -1.8727 H         1 <0>         0.1014
     40 H8          3.9154    9.0043   -5.0221 H         1 <0>         0.1517
     41 H9          5.3014   10.5628   -6.7384 H         1 <0>         0.1518
     42 H10         5.8849   12.7770   -5.4645 H         1 <0>         0.2065
     43 H11         1.8621    1.8544    0.8843 H         1 <0>         0.1130
     44 H12         1.8451    1.8640   -0.8956 H         1 <0>         0.1129
     45 H13         0.8486   -0.4776   -0.0086 H         1 <0>         0.4123
     46 H14        -0.2910   -2.5149   -0.0087 H         1 <0>         0.3987
     47 H15        -3.1447   -2.2506   -0.5695 H         1 <0>         0.0919
     48 H16        -2.1364   -3.4922    2.0303 H         1 <0>         0.0644
     49 H17        -3.0452   -1.9680    1.8920 H         1 <0>         0.0685
     50 H18        -4.9479   -3.1943    0.8798 H         1 <0>         0.0658
     51 H19        -4.5476   -3.8492    2.4857 H         1 <0>         0.0665
     52 H20        -4.9109   -5.6734    0.8459 H         1 <0>         0.0655
     53 H21        -3.2259   -5.6561    1.4194 H         1 <0>         0.0632
     54 H22        -4.2342   -4.4145   -1.1804 H         1 <0>         0.0666
     55 H23        -3.3254   -5.9387   -1.0421 H         1 <0>         0.0692
     56 H24        -1.8230   -4.0575   -1.6358 H         1 <0>         0.0700
     57 H25        -1.4227   -4.7124   -0.0298 H         1 <0>         0.0695
@<TRIPOS>BOND
     1    1    6 ar
     2    1    2 ar
     3    1   33 1
     4    2    3 ar
     5    2   34 1
     6    3    4 ar
     7    3   17 1
     8    4    5 ar
     9    4   35 1
    10    5    6 ar
    11    5    7 1
    12    6   36 1
    13    7    8 2
    14    7    9 2
    15    7   10 1
    16   10   11 1
    17   10   37 1
    18   11   12 1
    19   11   38 1
    20   11   39 1
    21   12   16 1
    22   12   13 2
    23   13   14 1
    24   13   40 1
    25   14   15 2
    26   14   41 1
    27   15   16 1
    28   15   42 1
    29   17   18 2
    30   17   19 1
    31   19   20 1
    32   20   21 1
    33   20   43 1
    34   20   44 1
    35   21   22 2
    36   21   23 am
    37   23   24 am
    38   23   45 1
    39   24   25 2
    40   24   26 am
    41   26   27 1
    42   26   46 1
    43   27   32 1
    44   27   28 1
    45   27   47 1
    46   28   29 1
    47   28   48 1
    48   28   49 1
    49   29   30 1
    50   29   50 1
    51   29   51 1
    52   30   31 1
    53   30   52 1
    54   30   53 1
    55   31   32 1
    56   31   54 1
    57   31   55 1
    58   32   56 1
    59   32   57 1
@<TRIPOS>MOLECULE
ZINC16664296
   58    59     0     0     0
SMALL
USER_CHARGES
[2-[(2,3-dimethylphenyl)carbamoylamino]-2-oxo-ethyl] (E)-3-[4-methoxy-3-(methylsulfamoyl)phenyl]prop-2-enoate
@<TRIPOS>ATOM
      1 C1          3.3875   -0.7388    1.1818 C.3       1 <0>        -0.1177
      2 C2          2.2449    0.0133    0.5493 C.ar      1 <0>        -0.0662
      3 C3          1.2105   -0.6800   -0.0524 C.ar      1 <0>        -0.1327
      4 C4          0.1603    0.0063   -0.6333 C.ar      1 <0>        -0.0980
      5 C5          0.1412    1.3874   -0.6144 C.ar      1 <0>        -0.1318
      6 C6          1.1782    2.0863   -0.0111 C.ar      1 <0>         0.1616
      7 C7          2.2317    1.3939    0.5716 C.ar      1 <0>        -0.1166
      8 C8          3.3596    2.1486    1.2270 C.3       1 <0>        -0.1183
      9 N1          1.1616    3.4854    0.0101 N.am      1 <0>        -0.6717
     10 C9         -0.0095    4.1468   -0.0764 C.2       1 <0>         0.6963
     11 O1         -1.0573    3.5309   -0.0699 O.2       1 <0>        -0.5045
     12 N2         -0.0188    5.4913   -0.1702 N.am      1 <0>        -0.6859
     13 C10        -1.1899    6.1527   -0.2567 C.2       1 <0>         0.5195
     14 O2         -2.2350    5.5383   -0.2502 O.2       1 <0>        -0.4370
     15 C11        -1.2002    7.6561   -0.3616 C.3       1 <0>         0.0535
     16 O3         -2.5500    8.1188   -0.4405 O.3       1 <0>        -0.3278
     17 C12        -2.7358    9.4515   -0.5396 C.2       1 <0>         0.5097
     18 O4         -1.7768   10.1997   -0.5584 O.2       1 <0>        -0.5105
     19 C13        -4.0489    9.9800   -0.6219 C.2       1 <0>        -0.2183
     20 C14        -4.2350   11.3144   -0.7211 C.2       1 <0>         0.0263
     21 C15        -5.5960   11.8621   -0.8063 C.ar      1 <0>        -0.1444
     22 C16        -6.7015   11.0032   -0.7849 C.ar      1 <0>         0.0004
     23 C17        -7.9741   11.5214   -0.8645 C.ar      1 <0>        -0.2264
     24 C18        -8.1629   12.8953   -0.9661 C.ar      1 <0>         0.2386
     25 C19        -7.0687   13.7524   -0.9878 C.ar      1 <0>        -0.7129
     26 C20        -5.7918   13.2447   -0.9033 C.ar      1 <0>         0.0490
     27 S1         -7.3167   15.4921   -1.1161 S.o2      1 <0>         2.7046
     28 O5         -8.2952   15.8356   -0.1446 O.2       1 <0>        -0.9417
     29 O6         -6.0259   16.0857   -1.1401 O.2       1 <0>        -0.9596
     30 N3         -7.9983   15.7816   -2.5973 N.pl3     1 <0>        -1.1167
     31 C21        -9.3368   15.2690   -2.9005 C.3       1 <0>         0.0828
     32 O7         -9.4199   13.4013   -1.0439 O.3       1 <0>        -0.3037
     33 C22       -10.4990   12.4649   -1.0157 C.3       1 <0>         0.0181
     34 H1          4.1701   -0.9013    0.4407 H         1 <0>         0.0725
     35 H2          3.7887   -0.1586    2.0127 H         1 <0>         0.0705
     36 H3          3.0300   -1.7007    1.5495 H         1 <0>         0.0680
     37 H4          1.2233   -1.7598   -0.0688 H         1 <0>         0.1238
     38 H5         -0.6462   -0.5380   -1.1021 H         1 <0>         0.1268
     39 H6         -0.6773    1.9230   -1.0723 H         1 <0>         0.1456
     40 H7          4.1381    2.3498    0.4912 H         1 <0>         0.0722
     41 H8          2.9832    3.0911    1.6248 H         1 <0>         0.0604
     42 H9          3.7731    1.5507    2.0392 H         1 <0>         0.0776
     43 H10         1.9929    3.9792    0.0872 H         1 <0>         0.4097
     44 H11         0.8174    5.9829   -0.1754 H         1 <0>         0.4140
     45 H12        -0.7200    8.0849    0.5179 H         1 <0>         0.1090
     46 H13        -0.6585    7.9616   -1.2567 H         1 <0>         0.1090
     47 H14        -4.9003    9.3158   -0.6052 H         1 <0>         0.1435
     48 H15        -3.3835   11.9786   -0.7378 H         1 <0>         0.1466
     49 H16        -6.5560    9.9360   -0.7057 H         1 <0>         0.1446
     50 H17        -8.8275   10.8597   -0.8484 H         1 <0>         0.1462
     51 H18        -4.9425   13.9118   -0.9161 H         1 <0>         0.1591
     52 H19        -7.5113   16.2905   -3.2642 H         1 <0>         0.4194
     53 H20        -9.3368   14.1820   -2.8185 H         1 <0>         0.0680
     54 H21       -10.0544   15.6866   -2.1943 H         1 <0>         0.0702
     55 H22        -9.6151   15.5568   -3.9143 H         1 <0>         0.0783
     56 H23       -10.4068   11.7788   -1.8577 H         1 <0>         0.0661
     57 H24       -10.4672   11.9017   -0.0830 H         1 <0>         0.0673
     58 H25       -11.4462   12.9999   -1.0850 H         1 <0>         0.1137
@<TRIPOS>BOND
     1    1    2 1
     2    1   34 1
     3    1   35 1
     4    1   36 1
     5    2    7 ar
     6    2    3 ar
     7    3    4 ar
     8    3   37 1
     9    4    5 ar
    10    4   38 1
    11    5    6 ar
    12    5   39 1
    13    6    7 ar
    14    6    9 1
    15    7    8 1
    16    8   40 1
    17    8   41 1
    18    8   42 1
    19    9   10 am
    20    9   43 1
    21   10   11 2
    22   10   12 am
    23   12   13 am
    24   12   44 1
    25   13   14 2
    26   13   15 1
    27   15   16 1
    28   15   45 1
    29   15   46 1
    30   16   17 1
    31   17   18 2
    32   17   19 1
    33   19   20 2
    34   19   47 1
    35   20   21 1
    36   20   48 1
    37   21   26 ar
    38   21   22 ar
    39   22   23 ar
    40   22   49 1
    41   23   24 ar
    42   23   50 1
    43   24   25 ar
    44   24   32 1
    45   25   26 ar
    46   25   27 1
    47   26   51 1
    48   27   28 2
    49   27   29 2
    50   27   30 1
    51   30   31 1
    52   30   52 1
    53   31   53 1
    54   31   54 1
    55   31   55 1
    56   32   33 1
    57   33   56 1
    58   33   57 1
    59   33   58 1
@<TRIPOS>MOLECULE
ZINC25376462
   54    56     0     0     0
SMALL
USER_CHARGES
N-[3-[N'-[(2R)-2-(4-fluorophenoxy)propanoyl]hydrazino]-3-oxo-propyl]-2,3-dihydro-1,4-benzodioxine-6-sulfonamide
@<TRIPOS>ATOM
      1 C1          8.3377    3.8070   -8.1400 C.3       1 <0>        -0.1808
      2 C2          7.4502    2.7038   -8.7199 C.3       1 <0>         0.0779
      3 H1          6.4392    3.0727   -8.9477 H         1 <0>         0.1064
      4 C3          7.3840    1.5512   -7.7512 C.2       1 <0>         0.5219
      5 O1          7.8517    0.4747   -8.0567 O.2       1 <0>        -0.5184
      6 N1          6.8050    1.7167   -6.5455 N.am      1 <0>        -0.5304
      7 N2          6.7434    0.6452   -5.6450 N.am      1 <0>        -0.5310
      8 C4          6.1644    0.8107   -4.4392 C.2       1 <0>         0.5204
      9 O2          5.6967    1.8872   -4.1337 O.2       1 <0>        -0.5416
     10 C5          6.0982   -0.3419   -3.4706 C.3       1 <0>        -0.1373
     11 C6          5.3968    0.1095   -2.1880 C.3       1 <0>         0.1301
     12 N3          5.3324   -1.0109   -1.2463 N.pl3     1 <0>        -1.1233
     13 S1          4.9711   -0.7346    0.3460 S.o2      1 <0>         2.7014
     14 O3          5.8129    0.3267    0.7752 O.2       1 <0>        -0.9500
     15 O4          4.9585   -2.0034    0.9857 O.2       1 <0>        -0.9531
     16 C7          3.3196   -0.1235    0.4070 C.ar      1 <0>        -0.6838
     17 C8          2.2618   -1.0049    0.5321 C.ar      1 <0>        -0.0148
     18 C9          0.9650   -0.5296    0.5789 C.ar      1 <0>        -0.1351
     19 C10         0.7214    0.8336    0.5007 C.ar      1 <0>         0.1074
     20 C11         1.7848    1.7198    0.3780 C.ar      1 <0>         0.0311
     21 C12         3.0838    1.2360    0.3301 C.ar      1 <0>        -0.0123
     22 O5          1.5686    3.0618    0.3080 O.3       1 <0>        -0.3023
     23 C13         0.2396    3.4835   -0.0172 C.3       1 <0>         0.0158
     24 C14        -0.7444    2.6750    0.8391 C.3       1 <0>         0.0151
     25 O6         -0.5616    1.2863    0.5395 O.3       1 <0>        -0.3007
     26 O7          7.9994    2.2531   -9.9597 O.3       1 <0>        -0.2853
     27 C15         7.6739    2.9621  -11.0730 C.ar      1 <0>         0.1203
     28 C16         6.9307    4.1279  -10.9609 C.ar      1 <0>        -0.1854
     29 C17         6.6058    4.8507  -12.0925 C.ar      1 <0>        -0.1112
     30 C18         7.0116    4.4057  -13.3392 C.ar      1 <0>         0.0629
     31 C19         7.7483    3.2389  -13.4531 C.ar      1 <0>        -0.1107
     32 C20         8.0798    2.5174  -12.3226 C.ar      1 <0>        -0.1167
     33 F1          6.6889    5.1108  -14.4455 F         1 <0>        -0.1388
     34 H2          8.3860    4.6483   -8.8470 H         1 <0>         0.0830
     35 H3          9.3502    3.4119   -7.9705 H         1 <0>         0.0816
     36 H4          7.9149    4.1539   -7.1856 H         1 <0>         0.0834
     37 H5          6.3808    2.6931   -6.2684 H         1 <0>         0.4591
     38 H6          7.1676   -0.3312   -5.9221 H         1 <0>         0.4609
     39 H7          5.5347   -1.1704   -3.9246 H         1 <0>         0.1099
     40 H8          7.1176   -0.6792   -3.2318 H         1 <0>         0.1143
     41 H9          5.9603    0.9380   -1.7341 H         1 <0>         0.0959
     42 H10         4.3774    0.4468   -2.4268 H         1 <0>         0.0722
     43 H11         5.3598   -2.0453   -1.6195 H         1 <0>         0.4436
     44 H12         2.4493   -2.0668    0.5930 H         1 <0>         0.1512
     45 H13         0.1405   -1.2203    0.6762 H         1 <0>         0.1464
     46 H14         3.9119    1.9224    0.2319 H         1 <0>         0.1529
     47 H15         0.1328    4.5571    0.1971 H         1 <0>         0.1297
     48 H16         0.0483    3.3020   -1.0851 H         1 <0>         0.0817
     49 H17        -0.5428    2.8618    1.9042 H         1 <0>         0.0853
     50 H18        -1.7741    2.9807    0.6017 H         1 <0>         0.1307
     51 H19         6.6099    4.4727   -9.9890 H         1 <0>         0.1404
     52 H20         6.0316    5.7612  -12.0050 H         1 <0>         0.1404
     53 H21         8.0642    2.8929  -14.4262 H         1 <0>         0.1452
     54 H22         8.6550    1.6077  -12.4117 H         1 <0>         0.1445
@<TRIPOS>BOND
     1    1    2 1
     2    1   34 1
     3    1   35 1
     4    1   36 1
     5    2    3 1
     6    2    4 1
     7    2   26 1
     8    4    5 2
     9    4    6 am
    10    6    7 1
    11    6   37 1
    12    7    8 am
    13    7   38 1
    14    8    9 2
    15    8   10 1
    16   10   11 1
    17   10   39 1
    18   10   40 1
    19   11   12 1
    20   11   41 1
    21   11   42 1
    22   12   13 1
    23   12   43 1
    24   13   14 2
    25   13   15 2
    26   13   16 1
    27   16   21 ar
    28   16   17 ar
    29   17   18 ar
    30   17   44 1
    31   18   19 ar
    32   18   45 1
    33   19   25 1
    34   19   20 ar
    35   20   21 ar
    36   20   22 1
    37   21   46 1
    38   22   23 1
    39   23   24 1
    40   23   47 1
    41   23   48 1
    42   24   25 1
    43   24   49 1
    44   24   50 1
    45   26   27 1
    46   27   32 ar
    47   27   28 ar
    48   28   29 ar
    49   28   51 1
    50   29   30 ar
    51   29   52 1
    52   30   31 ar
    53   30   33 1
    54   31   32 ar
    55   31   53 1
    56   32   54 1
@<TRIPOS>MOLECULE
ZINC39965816
   51    54     0     0     0
SMALL
USER_CHARGES

@<TRIPOS>ATOM
      1 C1         -1.5670    1.4467   -0.4784 C.3       1 <0>        -0.1155
      2 C2         -1.1419    0.0010   -0.4622 C.2       1 <0>         0.0320
      3 C3         -1.2664   -0.8110   -1.5799 C.2       1 <0>        -0.1409
      4 C4         -0.8454   -2.1361   -1.4679 C.2       1 <0>         0.0705
      5 S1         -0.3008   -2.2529    0.1167 S.3       1 <0>         0.3655
      6 C5         -0.6059   -0.5826    0.6555 C.2       1 <0>        -0.3124
      7 C6         -0.3498    0.0165    1.9664 C.2       1 <0>         0.6158
      8 O1         -0.6241    1.1857    2.1653 O.2       1 <0>        -0.5244
      9 N1          0.1895   -0.7265    2.9531 N.am      1 <0>        -0.8488
     10 N2         -0.8710   -3.1234   -2.4354 N.am      1 <0>        -0.6079
     11 C7         -0.4192   -4.3603   -2.1483 C.2       1 <0>         0.5359
     12 O2          0.0098   -4.6072   -1.0412 O.2       1 <0>        -0.4762
     13 C8         -0.4471   -5.4364   -3.2029 C.3       1 <0>        -0.1489
     14 S2          0.2220   -6.9754   -2.5142 S.3       1 <0>         0.0941
     15 C9          0.1227   -8.1191   -3.8509 C.2       1 <0>         0.1446
     16 N3         -0.3329   -7.8698   -5.0578 N.2       1 <0>        -0.2884
     17 N4         -0.2621   -8.9278   -5.7837 N.2       1 <0>        -0.2604
     18 C10         0.2430   -9.9179   -5.0852 C.2       1 <0>         0.2364
     19 N5          0.5107   -9.4290   -3.8273 N.pl3     1 <0>        -0.4478
     20 C11         1.0883  -10.1609   -2.6974 C.3       1 <0>         0.1246
     21 C12        -0.0177  -10.6567   -1.8018 C.2       1 <0>        -0.1885
     22 C13        -0.0779  -11.9240   -1.4755 C.2       1 <0>        -0.1550
     23 C14         0.4846  -11.2960   -5.5619 C.ar      1 <0>        -0.0118
     24 C15         0.3491  -12.3736   -4.6850 C.ar      1 <0>        -0.1022
     25 C16         0.5744  -13.6588   -5.1317 C.ar      1 <0>        -0.0972
     26 C17         0.9358  -13.8858   -6.4517 C.ar      1 <0>         0.0527
     27 C18         1.0729  -12.8138   -7.3326 C.ar      1 <0>         0.0374
     28 C19         0.8431  -11.5236   -6.8915 C.ar      1 <0>        -0.0556
     29 O3          1.4315  -13.2991   -8.5573 O.3       1 <0>        -0.3025
     30 C20         1.9105  -14.6352   -8.3160 C.3       1 <0>         0.2120
     31 O4          1.2085  -15.0410   -7.1263 O.3       1 <0>        -0.3039
     32 C21        -1.8084   -0.3068   -2.8057 C.1       1 <0>         0.2648
     33 N6         -2.2384    0.0933   -3.7781 N.1       1 <0>        -0.4094
     34 H1         -0.7282    2.0686   -0.7910 H         1 <0>         0.0847
     35 H2         -2.3941    1.5745   -1.1767 H         1 <0>         0.0655
     36 H3         -1.8862    1.7427    0.5209 H         1 <0>         0.1008
     37 H4          0.4080   -1.6581    2.7946 H         1 <0>         0.4000
     38 H5          0.3591   -0.3295    3.8218 H         1 <0>         0.4119
     39 H6         -1.2142   -2.9259   -3.3210 H         1 <0>         0.4295
     40 H7         -1.4746   -5.6002   -3.5277 H         1 <0>         0.1398
     41 H8          0.1582   -5.1261   -4.0546 H         1 <0>         0.1398
     42 H9          1.6624  -11.0095   -3.0695 H         1 <0>         0.1107
     43 H10         1.7440   -9.4984   -2.1323 H         1 <0>         0.1136
     44 H11        -0.7606   -9.9672   -1.4290 H         1 <0>         0.1258
     45 H12         0.6358  -12.6222   -1.8874 H         1 <0>         0.1069
     46 H13        -0.8412  -12.2707   -0.7947 H         1 <0>         0.1153
     47 H14         0.0683  -12.2008   -3.6565 H         1 <0>         0.1469
     48 H15         0.4694  -14.4912   -4.4517 H         1 <0>         0.1456
     49 H16         0.9444  -10.6928   -7.5741 H         1 <0>         0.1484
     50 H17         1.6585  -15.2890   -9.1510 H         1 <0>         0.1370
     51 H18         2.9866  -14.6308   -8.1430 H         1 <0>         0.0894
@<TRIPOS>BOND
     1    1    2 1
     2    1   34 1
     3    1   35 1
     4    1   36 1
     5    2    6 2
     6    2    3 1
     7    3    4 2
     8    3   32 1
     9    4    5 1
    10    4   10 1
    11    5    6 1
    12    6    7 1
    13    7    8 2
    14    7    9 am
    15    9   37 1
    16    9   38 1
    17   10   11 am
    18   10   39 1
    19   11   12 2
    20   11   13 1
    21   13   14 1
    22   13   40 1
    23   13   41 1
    24   14   15 1
    25   15   19 1
    26   15   16 2
    27   16   17 1
    28   17   18 2
    29   18   19 1
    30   18   23 1
    31   19   20 1
    32   20   21 1
    33   20   42 1
    34   20   43 1
    35   21   22 2
    36   21   44 1
    37   22   45 1
    38   22   46 1
    39   23   28 ar
    40   23   24 ar
    41   24   25 ar
    42   24   47 1
    43   25   26 ar
    44   25   48 1
    45   26   31 1
    46   26   27 ar
    47   27   28 ar
    48   27   29 1
    49   28   49 1
    50   29   30 1
    51   30   31 1
    52   30   50 1
    53   30   51 1
    54   32   33 3
@<TRIPOS>MOLECULE
ZINC65305130
   60    63     0     0     0
SMALL
USER_CHARGES

@<TRIPOS>ATOM
      1 C1         -1.0520    1.6043    0.6034 C.3       1 <0>         0.0262
      2 O1         -0.8618    0.1915    0.5042 O.3       1 <0>        -0.3157
      3 C2         -0.1830   -0.4121    1.5150 C.ar      1 <0>         0.1020
      4 C3          0.2854    0.3391    2.5834 C.ar      1 <0>        -0.1664
      5 C4          0.9746   -0.2769    3.6097 C.ar      1 <0>        -0.1044
      6 C5          1.1980   -1.6411    3.5731 C.ar      1 <0>        -0.0607
      7 C6          0.7327   -2.3917    2.5095 C.ar      1 <0>        -0.5823
      8 C7          0.0378   -1.7812    1.4832 C.ar      1 <0>        -0.0525
      9 S1          1.0199   -4.1296    2.4662 S.o2      1 <0>         2.6110
     10 O2          0.9593   -4.5174    1.1005 O.2       1 <0>        -1.0186
     11 O3          2.1610   -4.3730    3.2773 O.2       1 <0>        -1.0189
     12 N1         -0.2617   -4.8566    3.2220 N.2       1 <0>        -1.0724
     13 C8         -0.3062   -6.2517    3.3391 C.ar      1 <0>         0.2415
     14 C9         -1.3811   -6.8689    3.9667 C.ar      1 <0>        -0.1072
     15 C10        -1.3825   -8.2653    4.0599 C.ar      1 <0>        -0.1358
     16 C11        -0.3027   -8.9819    3.5177 C.ar      1 <0>         0.2781
     17 N2          0.6980   -8.3462    2.9299 N.ar      1 <0>        -0.4492
     18 C12         0.7212   -7.0318    2.8237 C.ar      1 <0>        -0.0076
     19 N3         -0.2851  -10.3648    3.5996 N.pl3     1 <0>        -0.6278
     20 C13        -0.7854  -11.1944    2.4926 C.3       1 <0>         0.1306
     21 C14         0.2764  -12.2464    2.1556 C.3       1 <0>        -0.0254
     22 N4          0.6213  -12.9984    3.3688 N.4       1 <0>        -0.4987
     23 C15         1.2486  -12.1042    4.3501 C.3       1 <0>        -0.0247
     24 C16         0.2401  -11.0452    4.7935 C.3       1 <0>         0.1285
     25 C17        -2.4978   -8.9719    4.7161 C.2       1 <0>         0.5786
     26 O4         -2.5400  -10.1871    4.7017 O.2       1 <0>        -0.5436
     27 N5         -3.4705   -8.2711    5.3319 N.am      1 <0>        -0.7212
     28 C18        -4.5786   -8.9733    5.9839 C.3       1 <0>         0.1790
     29 C19        -5.5221   -7.9677    6.5919 C.ar      1 <0>         0.1019
     30 C20        -6.6363   -7.5603    5.8825 C.ar      1 <0>        -0.1526
     31 C21        -7.4979   -6.6349    6.4509 C.ar      1 <0>        -0.0749
     32 C22        -7.2052   -6.1517    7.7173 C.ar      1 <0>        -0.1644
     33 C23        -6.0727   -6.6053    8.3661 C.ar      1 <0>         0.1009
     34 N6         -5.2781   -7.4907    7.7967 N.ar      1 <0>        -0.4692
     35 H1         -0.0818    2.0998    0.6415 H         1 <0>         0.0547
     36 H2         -1.6067    1.9582   -0.2656 H         1 <0>         0.1009
     37 H3         -1.6124    1.8327    1.5099 H         1 <0>         0.0550
     38 H4          0.1115    1.4046    2.6123 H         1 <0>         0.1320
     39 H5          1.3397    0.3075    4.4414 H         1 <0>         0.1320
     40 H6          1.7371   -2.1209    4.3765 H         1 <0>         0.1393
     41 H7         -0.3293   -2.3687    0.6547 H         1 <0>         0.1450
     42 H8         -2.1946   -6.2860    4.3727 H         1 <0>         0.1307
     43 H9          1.5552   -6.5537    2.3316 H         1 <0>         0.1358
     44 H10        -1.7086  -11.6894    2.7941 H         1 <0>         0.0803
     45 H11        -0.9703  -10.5680    1.6200 H         1 <0>         0.1065
     46 H12        -0.1157  -12.9305    1.4031 H         1 <0>         0.1307
     47 H13         1.1676  -11.7523    1.7687 H         1 <0>         0.1314
     48 H14        -0.2165  -13.3966    3.7657 H         1 <0>         0.4247
     49 H15         1.5729  -12.6835    5.2145 H         1 <0>         0.1312
     50 H16         2.1104  -11.6143    3.8967 H         1 <0>         0.1307
     51 H17         0.7329  -10.3202    5.4412 H         1 <0>         0.1056
     52 H18        -0.5778  -11.5248    5.3312 H         1 <0>         0.0814
     53 H19        -3.4368   -7.3017    5.3433 H         1 <0>         0.4056
     54 H20        -5.1126   -9.5731    5.2468 H         1 <0>         0.0828
     55 H21        -4.1868   -9.6232    6.7662 H         1 <0>         0.0842
     56 H22        -6.8329   -7.9577    4.8977 H         1 <0>         0.1373
     57 H23        -8.3759   -6.2980    5.9199 H         1 <0>         0.1379
     58 H24        -7.8542   -5.4296    8.1905 H         1 <0>         0.1380
     59 H25        -5.8378   -6.2339    9.3526 H         1 <0>         0.1593
     60 H26         1.2637  -13.7397    3.1322 H         1 <0>         0.4228
@<TRIPOS>BOND
     1    1    2 1
     2    1   35 1
     3    1   36 1
     4    1   37 1
     5    2    3 1
     6    3    8 ar
     7    3    4 ar
     8    4    5 ar
     9    4   38 1
    10    5    6 ar
    11    5   39 1
    12    6    7 ar
    13    6   40 1
    14    7    8 ar
    15    7    9 1
    16    8   41 1
    17    9   10 2
    18    9   11 2
    19    9   12 1
    20   12   13 1
    21   13   18 ar
    22   13   14 ar
    23   14   15 ar
    24   14   42 1
    25   15   16 ar
    26   15   25 1
    27   16   17 ar
    28   16   19 1
    29   17   18 ar
    30   18   43 1
    31   19   24 1
    32   19   20 1
    33   20   21 1
    34   20   44 1
    35   20   45 1
    36   21   22 1
    37   21   46 1
    38   21   47 1
    39   22   23 1
    40   22   48 1
    41   22   60 1
    42   23   24 1
    43   23   49 1
    44   23   50 1
    45   24   51 1
    46   24   52 1
    47   25   26 2
    48   25   27 am
    49   27   28 1
    50   27   53 1
    51   28   29 1
    52   28   54 1
    53   28   55 1
    54   29   34 ar
    55   29   30 ar
    56   30   31 ar
    57   30   56 1
    58   31   32 ar
    59   31   57 1
    60   32   33 ar
    61   32   58 1
    62   33   34 ar
    63   33   59 1
@<TRIPOS>MOLECULE
ZINC33457529
   52    56     0     0     0
SMALL
USER_CHARGES
(3aR,4S,6R,6aR)-4-(benzofuran-2-yl)-6-(carboxymethyl)-2-(3-chloro-4-methyl-phenyl)-1,3-dioxo-3a,4,5,6a-tetrahydropyrrolo[3,4-c]pyrrole-6-carboxylic acid
@<TRIPOS>ATOM
      1 C1         -3.4496    2.4110    9.0026 C.3       1 <0>        -0.1164
      2 C2         -3.2159    2.2314    7.5248 C.ar      1 <0>        -0.0870
      3 C3         -4.0301    1.3848    6.7951 C.ar      1 <0>        -0.0829
      4 C4         -3.8218    1.2221    5.4396 C.ar      1 <0>        -0.1291
      5 C5         -2.7868    1.9013    4.8107 C.ar      1 <0>         0.1365
      6 C6         -1.9708    2.7509    5.5445 C.ar      1 <0>        -0.1329
      7 C7         -2.1871    2.9142    6.9002 C.ar      1 <0>        -0.0174
      8 Cl1        -1.1670    3.9761    7.8197 Cl        1 <0>        -0.0611
      9 N1         -2.5700    1.7335    3.4357 N.am      1 <0>        -0.5357
     10 C8         -1.5734    2.3714    2.7393 C.2       1 <0>         0.5794
     11 O1         -0.6262    2.9755    3.1946 O.2       1 <0>        -0.4517
     12 C9         -1.8974    2.1672    1.3494 C.3       1 <0>        -0.2271
     13 H1         -2.1670    3.2306    1.2691 H         1 <0>         0.1793
     14 C10        -1.2634    2.1861    0.0202 C.3       1 <0>         0.1618
     15 H2         -0.9537    3.1963   -0.2856 H         1 <0>         0.1780
     16 N2         -2.3272    1.5809   -0.8532 N.4       1 <0>        -0.5040
     17 C11        -3.2204    0.7592    0.0184 C.3       1 <0>         0.0637
     18 C12        -2.5480    0.7316    1.3803 C.3       1 <0>        -0.0933
     19 H3         -2.0681   -0.2551    1.4578 H         1 <0>         0.1957
     20 C13        -3.3279    0.9167    2.6436 C.2       1 <0>         0.5493
     21 O2         -4.4101    0.4401    2.9102 O.2       1 <0>        -0.4126
     22 C14        -4.6014    1.4094    0.1232 C.3       1 <0>        -0.1739
     23 C15        -5.2279    1.4815   -1.2454 C.2       1 <0>         0.4432
     24 O3         -4.6312    1.0563   -2.2062 O.co2     1 <0>        -0.5779
     25 O4         -6.4490    2.0179   -1.3972 O.co2     1 <0>        -0.7645
     26 C16        -3.3421   -0.6388   -0.5311 C.2       1 <0>         0.4730
     27 O5         -3.4106   -1.5805    0.2230 O.co2     1 <0>        -0.6085
     28 O6         -3.3743   -0.8380   -1.8581 O.co2     1 <0>        -0.6694
     29 C17        -0.0162    1.3403    0.0094 C.2       1 <0>        -0.0271
     30 C18         1.2353    1.8190    0.0000 C.2       1 <0>        -0.1453
     31 C19         2.1210    0.6486   -0.0147 C.ar      1 <0>        -0.1391
     32 C20         3.5039    0.4727   -0.0282 C.ar      1 <0>        -0.0660
     33 C21         4.0263   -0.7909   -0.0393 C.ar      1 <0>        -0.1362
     34 C22         3.1891   -1.8972   -0.0372 C.ar      1 <0>        -0.0851
     35 C23         1.8193   -1.7428   -0.0247 C.ar      1 <0>        -0.1033
     36 C24         1.2679   -0.4676   -0.0126 C.ar      1 <0>         0.0734
     37 O7          0.0021   -0.0041    0.0020 O.3       1 <0>        -0.1743
     38 H4         -4.3037    1.7929    9.3165 H         1 <0>         0.0718
     39 H5         -3.6652    3.4688    9.2138 H         1 <0>         0.0751
     40 H6         -2.5505    2.1024    9.5562 H         1 <0>         0.0748
     41 H7         -4.8328    0.8537    7.2850 H         1 <0>         0.1422
     42 H8         -4.4609    0.5638    4.8699 H         1 <0>         0.1592
     43 H9         -1.1676    3.2836    5.0571 H         1 <0>         0.1605
     44 H10        -2.9015    2.3826   -1.3404 H         1 <0>         0.4550
     45 H11        -5.2400    0.8087    0.7876 H         1 <0>         0.1126
     46 H12        -4.4984    2.4249    0.5333 H         1 <0>         0.0690
     47 H13         1.5326    2.8573    0.0028 H         1 <0>         0.1667
     48 H14         4.1597    1.3308   -0.0302 H         1 <0>         0.1288
     49 H15         5.0974   -0.9286   -0.0501 H         1 <0>         0.1306
     50 H16         3.6149   -2.8897   -0.0457 H         1 <0>         0.1376
     51 H17         1.1766   -2.6107   -0.0232 H         1 <0>         0.1396
     52 H18        -1.8560    0.9491   -1.6205 H         1 <0>         0.4653
@<TRIPOS>BOND
     1    1    2 1
     2    1   38 1
     3    1   39 1
     4    1   40 1
     5    2    7 ar
     6    2    3 ar
     7    3    4 ar
     8    3   41 1
     9    4    5 ar
    10    4   42 1
    11    5    6 ar
    12    5    9 1
    13    6    7 ar
    14    6   43 1
    15    7    8 1
    16    9   20 am
    17    9   10 am
    18   10   11 2
    19   10   12 1
    20   12   13 1
    21   12   18 1
    22   12   14 1
    23   14   15 1
    24   14   16 1
    25   14   29 1
    26   16   17 1
    27   16   44 1
    28   16   52 1
    29   17   18 1
    30   17   22 1
    31   17   26 1
    32   18   19 1
    33   18   20 1
    34   20   21 2
    35   22   23 1
    36   22   45 1
    37   22   46 1
    38   23   24 2
    39   23   25 1
    40   26   27 2
    41   26   28 1
    42   29   37 1
    43   29   30 2
    44   30   31 1
    45   30   47 1
    46   31   36 ar
    47   31   32 ar
    48   32   33 ar
    49   32   48 1
    50   33   34 ar
    51   33   49 1
    52   34   35 ar
    53   34   50 1
    54   35   36 ar
    55   35   51 1
    56   36   37 1
@<TRIPOS>MOLECULE
ZINC43743750
   74    77     0     0     0
SMALL
USER_CHARGES

@<TRIPOS>ATOM
      1 C1          2.2491    1.9674   -1.3862 C.3       1 <0>        -0.1802
      2 C2          2.2666    0.4384   -1.4402 C.3       1 <0>         0.1096
      3 H1          1.2585    0.0701   -1.6306 H         1 <0>         0.1082
      4 C3          2.7673   -0.1134   -0.1039 C.3       1 <0>         0.0438
      5 H2          2.0565    0.1393    0.6828 H         1 <0>         0.0897
      6 C4          2.9014   -1.6115   -0.1976 C.2       1 <0>         0.5006
      7 O1          3.9531   -2.1076   -0.5640 O.co2     1 <0>        -0.6829
      8 O2          1.9582   -2.3273    0.0929 O.co2     1 <0>        -0.6955
      9 N1          4.0719    0.4750    0.2093 N.am      1 <0>        -0.6914
     10 C5          4.4823    0.5611    1.4902 C.2       1 <0>         0.5147
     11 O3          3.7716    0.1515    2.3835 O.2       1 <0>        -0.5257
     12 C6          5.8243    1.1664    1.8124 C.3       1 <0>         0.0615
     13 O4          6.0295    1.1447    3.2264 O.3       1 <0>        -0.2085
     14 N2          7.2683    1.6939    3.6371 N.2       1 <0>        -0.3396
     15 C7          7.5743    1.7328    4.8952 C.2       1 <0>         0.1672
     16 C8          6.6422    1.1968    5.9656 C.3       1 <0>        -0.1162
     17 C9          6.4611    2.2963    7.0116 C.3       1 <0>        -0.1060
     18 C10         7.7772    2.7800    7.5693 C.3       1 <0>        -0.0200
     19 C11         8.1639    2.0333    8.8465 C.3       1 <0>        -0.0629
     20 H3          8.3503    0.9862    8.6077 H         1 <0>         0.0718
     21 C12         7.0239    2.1235    9.8562 C.3       1 <0>        -0.1218
     22 C13         7.4114    1.4971   11.2055 C.3       1 <0>        -0.1192
     23 C14         8.6506    2.2199   11.6970 C.3       1 <0>        -0.0521
     24 C15         9.7913    1.9136   10.6895 C.3       1 <0>        -0.0819
     25 H4          9.8685    0.8402   10.5167 H         1 <0>         0.0855
     26 C16         9.4489    2.6602    9.4139 C.3       1 <0>        -0.0775
     27 H5          9.2792    3.7157    9.6266 H         1 <0>         0.0877
     28 C17        10.5924    2.5001    8.4120 C.3       1 <0>        -0.1120
     29 C18        10.2689    3.2631    7.1224 C.3       1 <0>        -0.0868
     30 C19         8.9285    2.7604    6.6129 C.2       1 <0>        -0.0576
     31 C20         8.8532    2.2954    5.3715 C.2       1 <0>        -0.1169
     32 C21        11.0216    2.4210   11.4495 C.3       1 <0>        -0.1167
     33 C22        10.7592    1.9333   12.9006 C.3       1 <0>        -0.1054
     34 C23         9.2262    1.7529   13.0302 C.3       1 <0>        -0.1323
     35 H6          8.8410    2.3675   13.8438 H         1 <0>         0.0948
     36 C24         8.8891    0.3030   13.2652 C.2       1 <0>         0.3579
     37 O5          8.7571   -0.4459   12.3271 O.2       1 <0>        -0.4438
     38 C25         8.7168   -0.2124   14.6708 C.3       1 <0>        -0.2056
     39 C26         8.3870    3.7262   11.7454 C.3       1 <0>        -0.1497
     40 C27         7.5725    4.2394    7.9804 C.3       1 <0>        -0.1537
     41 O6          3.1367    0.0088   -2.4891 O.3       1 <0>        -0.5474
     42 H7          3.2571    2.3358   -1.1959 H         1 <0>         0.0545
     43 H8          1.8923    2.3605   -2.3382 H         1 <0>         0.0601
     44 H9          1.5854    2.2951   -0.5861 H         1 <0>         0.0638
     45 H10         4.6403    0.8027   -0.5052 H         1 <0>         0.3890
     46 H11         6.6095    0.5908    1.3224 H         1 <0>         0.0862
     47 H12         5.8531    2.1964    1.4568 H         1 <0>         0.0807
     48 H13         5.6783    0.9439    5.5239 H         1 <0>         0.0916
     49 H14         7.0808    0.3133    6.4295 H         1 <0>         0.0863
     50 H15         5.9412    3.1377    6.5533 H         1 <0>         0.0665
     51 H16         5.8520    1.9097    7.8286 H         1 <0>         0.0815
     52 H17         6.7679    3.1716   10.0110 H         1 <0>         0.0703
     53 H18         6.1540    1.6011    9.4582 H         1 <0>         0.0661
     54 H19         6.5990    1.6249   11.9208 H         1 <0>         0.0548
     55 H20         7.6278    0.4369   11.0739 H         1 <0>         0.0921
     56 H21        11.5113    2.8952    8.8453 H         1 <0>         0.0664
     57 H22        10.7274    1.4431    8.1828 H         1 <0>         0.0648
     58 H23        10.2081    4.3314    7.3304 H         1 <0>         0.0777
     59 H24        11.0418    3.0743    6.3774 H         1 <0>         0.0741
     60 H25         9.7124    2.3311    4.7181 H         1 <0>         0.1315
     61 H26        11.9324    1.9740   11.0512 H         1 <0>         0.0668
     62 H27        11.0764    3.5090   11.4123 H         1 <0>         0.0702
     63 H28        11.2637    0.9825   13.0727 H         1 <0>         0.0641
     64 H29        11.1100    2.6782   13.6149 H         1 <0>         0.0721
     65 H30         8.8729    0.6022   15.3781 H         1 <0>         0.0789
     66 H31         7.7091   -0.6099   14.7911 H         1 <0>         0.0908
     67 H32         9.4439   -1.0021   14.8599 H         1 <0>         0.0896
     68 H33         7.6274    3.9382   12.4978 H         1 <0>         0.0518
     69 H34         9.3087    4.2483   12.0024 H         1 <0>         0.0563
     70 H35         8.0372    4.0653   10.7703 H         1 <0>         0.0718
     71 H36         6.7875    4.2978    8.7344 H         1 <0>         0.0634
     72 H37         8.5013    4.6348    8.3916 H         1 <0>         0.0633
     73 H38         7.2828    4.8254    7.1081 H         1 <0>         0.0539
     74 H39         4.0526    0.3011   -2.3849 H         1 <0>         0.3653
@<TRIPOS>BOND
     1    1    2 1
     2    1   42 1
     3    1   43 1
     4    1   44 1
     5    2    3 1
     6    2    4 1
     7    2   41 1
     8    4    5 1
     9    4    6 1
    10    4    9 1
    11    6    7 2
    12    6    8 1
    13    9   10 am
    14    9   45 1
    15   10   11 2
    16   10   12 1
    17   12   13 1
    18   12   46 1
    19   12   47 1
    20   13   14 1
    21   14   15 2
    22   15   31 1
    23   15   16 1
    24   16   17 1
    25   16   48 1
    26   16   49 1
    27   17   18 1
    28   17   50 1
    29   17   51 1
    30   18   30 1
    31   18   19 1
    32   18   40 1
    33   19   20 1
    34   19   26 1
    35   19   21 1
    36   21   22 1
    37   21   52 1
    38   21   53 1
    39   22   23 1
    40   22   54 1
    41   22   55 1
    42   23   34 1
    43   23   24 1
    44   23   39 1
    45   24   25 1
    46   24   26 1
    47   24   32 1
    48   26   27 1
    49   26   28 1
    50   28   29 1
    51   28   56 1
    52   28   57 1
    53   29   30 1
    54   29   58 1
    55   29   59 1
    56   30   31 2
    57   31   60 1
    58   32   33 1
    59   32   61 1
    60   32   62 1
    61   33   34 1
    62   33   63 1
    63   33   64 1
    64   34   35 1
    65   34   36 1
    66   36   37 2
    67   36   38 1
    68   38   65 1
    69   38   66 1
    70   38   67 1
    71   39   68 1
    72   39   69 1
    73   39   70 1
    74   40   71 1
    75   40   72 1
    76   40   73 1
    77   41   74 1
@<TRIPOS>MOLECULE
ZINC54502815
   41    42     0     0     0
SMALL
USER_CHARGES

@<TRIPOS>ATOM
      1 C1         -0.7663    1.1531    1.0118 C.3       1 <0>         0.0323
      2 O1         -0.7019   -0.2732    1.0719 O.3       1 <0>        -0.3718
      3 C2         -1.9252   -0.8939    1.4722 C.3       1 <0>         0.0500
      4 C3         -1.7408   -2.4125    1.5015 C.3       1 <0>         0.1015
      5 N1         -0.7689   -2.7665    2.5390 N.am      1 <0>        -0.4980
      6 C4          0.5427   -2.8320    2.2300 C.2       1 <0>         0.5596
      7 O2          0.9267   -2.5995    1.0983 O.2       1 <0>        -0.5199
      8 C5          1.4968   -3.1884    3.2857 C.2       1 <0>        -0.4274
      9 C6          2.9349   -3.2743    3.0072 C.2       1 <0>         0.4212
     10 C7          3.5833   -4.4903    3.0927 C.2       1 <0>        -0.1834
     11 H1          4.5870   -2.1994    2.4641 H         1 <0>         0.4019
     12 C8          2.8498   -5.6600    3.3279 C.2       1 <0>         0.5225
     13 O3          1.6317   -5.6217    3.3481 O.2       1 <0>        -0.5143
     14 O4          3.4926   -6.8311    3.5326 O.3       1 <0>        -0.3654
     15 C9          2.6816   -7.9841    3.7665 C.3       1 <0>         0.0428
     16 F1          4.9253   -4.5519    2.9494 F         1 <0>        -0.1563
     17 N2          3.6388   -2.1406    2.6601 N.pl3     1 <0>        -0.6725
     18 C10         2.9547   -0.8472    2.5874 C.3       1 <0>         0.1059
     19 C11         3.2179    0.0230    1.3568 C.3       1 <0>        -0.1804
     20 C12         3.8124    0.4137    2.7114 C.3       1 <0>        -0.2001
     21 C13         0.9953   -3.4431    4.5633 C.2       1 <0>         0.5123
     22 O5          1.8266   -3.7741    5.5699 O.3       1 <0>        -0.6348
     23 N3         -0.3496   -3.3513    4.7781 N.pl3     1 <0>        -0.5850
     24 C14        -1.1930   -3.0169    3.7888 C.2       1 <0>         0.5632
     25 S1         -2.8675   -2.9133    4.1298 S.2       1 <0>        -0.6558
     26 H2          0.2010    1.5477    0.7007 H         1 <0>         0.0814
     27 H3         -1.5291    1.4524    0.2930 H         1 <0>         0.0372
     28 H4         -1.0199    1.5471    1.9960 H         1 <0>         0.0360
     29 H5         -2.2028   -0.5424    2.4659 H         1 <0>         0.0616
     30 H6         -2.7120   -0.6371    0.7629 H         1 <0>         0.0646
     31 H7         -2.6958   -2.8903    1.7200 H         1 <0>         0.1303
     32 H8         -1.3775   -2.7531    0.5319 H         1 <0>         0.1042
     33 H9          2.0721   -7.8252    4.6561 H         1 <0>         0.0534
     34 H10         2.0328   -8.1524    2.9069 H         1 <0>         0.0507
     35 H11         3.3211   -8.8542    3.9149 H         1 <0>         0.0887
     36 H12         1.9541   -0.8197    3.0190 H         1 <0>         0.1276
     37 H13         3.9001   -0.3668    0.6014 H         1 <0>         0.0932
     38 H14         2.3904    0.6232    0.9785 H         1 <0>         0.0987
     39 H15         3.3760    1.2708    3.2242 H         1 <0>         0.0988
     40 H16         4.8858    0.2808    2.8471 H         1 <0>         0.0938
     41 H17        -0.7024   -3.5274    5.6643 H         1 <0>         0.4317
@<TRIPOS>BOND
     1    1    2 1
     2    1   26 1
     3    1   27 1
     4    1   28 1
     5    2    3 1
     6    3    4 1
     7    3   29 1
     8    3   30 1
     9    4    5 1
    10    4   31 1
    11    4   32 1
    12    5   24 1
    13    5    6 am
    14    6    7 2
    15    6    8 1
    16    8   21 2
    17    8    9 1
    18    9   10 2
    19    9   17 1
    20   10   12 1
    21   10   16 1
    22   11   17 1
    23   12   13 2
    24   12   14 1
    25   14   15 1
    26   15   33 1
    27   15   34 1
    28   15   35 1
    29   17   18 1
    30   18   20 1
    31   18   19 1
    32   18   36 1
    33   19   20 1
    34   19   37 1
    35   19   38 1
    36   20   39 1
    37   20   40 1
    38   21   22 1
    39   21   23 1
    40   23   24 1
    41   23   41 1
    42   24   25 2
@<TRIPOS>MOLECULE
ZINC64099975
   41    42     0     0     0
SMALL
USER_CHARGES

@<TRIPOS>ATOM
      1 C1          0.4629    0.9198    0.2540 C.3       1 <0>        -0.1535
      2 C2          0.5521   -0.6012    0.3941 C.3       1 <0>        -0.0948
      3 C3          1.3631   -1.1739   -0.7701 C.3       1 <0>        -0.1437
      4 C4          1.2389   -0.9522    1.7155 C.3       1 <0>        -0.0184
      5 C5          0.3786   -0.4957    2.8655 C.2       1 <0>        -0.0049
      6 N1         -0.5542   -1.1635    3.4901 N.2       1 <0>        -0.4466
      7 C6         -1.1994   -0.5673    4.4891 C.2       1 <0>         0.0746
      8 C7         -0.8189    0.7143    4.7751 C.2       1 <0>        -0.2340
      9 S1          0.3987    0.9885    3.6502 S.3       1 <0>         0.1785
     10 C8         -2.2664   -1.2509    5.2459 C.2       1 <0>         0.5496
     11 O1         -2.6129   -2.5198    4.9302 O.3       1 <0>        -0.6931
     12 N2         -2.8742   -0.6325    6.2174 N.2       1 <0>        -1.0632
     13 S2         -4.0713   -1.3995    7.0665 S.o2      1 <0>         2.6828
     14 O2         -5.1450   -1.6055    6.1587 O.2       1 <0>        -1.0107
     15 O3         -3.4509   -2.4684    7.7678 O.2       1 <0>        -1.0067
     16 C9         -4.6525   -0.2677    8.2854 C.2       1 <0>        -0.7035
     17 C10        -4.1513   -0.1263    9.5832 C.2       1 <0>        -0.0438
     18 C11        -4.8880    0.8649   10.1962 C.2       1 <0>        -0.0792
     19 N3         -5.8173    1.3142    9.2855 N.pl3     1 <0>        -0.4088
     20 C12        -5.6603    0.6239    8.1298 C.2       1 <0>         0.1347
     21 C13        -6.8072    2.3676    9.5239 C.3       1 <0>         0.0626
     22 C14        -4.7138    1.3514   11.5689 C.2       1 <0>         0.6025
     23 O4         -5.3587    2.3052   11.9629 O.2       1 <0>        -0.5587
     24 N4         -3.8393    0.7421   12.3939 N.am      1 <0>        -0.8431
     25 H1          1.4664    1.3452    0.2662 H         1 <0>         0.0562
     26 H2         -0.0263    1.1698   -0.6874 H         1 <0>         0.0555
     27 H3         -0.1148    1.3278    1.0833 H         1 <0>         0.0581
     28 H4         -0.4514   -1.0266    0.3819 H         1 <0>         0.0785
     29 H5          2.3665   -0.7485   -0.7579 H         1 <0>         0.0547
     30 H6          1.4266   -2.2575   -0.6702 H         1 <0>         0.0568
     31 H7          0.8738   -0.9238   -1.7114 H         1 <0>         0.0557
     32 H8          1.3823   -2.0311    1.7750 H         1 <0>         0.0932
     33 H9          2.2069   -0.4536    1.7655 H         1 <0>         0.0847
     34 H10        -1.2012    1.3803    5.5346 H         1 <0>         0.2038
     35 H11        -3.3402   -0.6879   10.0226 H         1 <0>         0.1560
     36 H12        -6.2452    0.7604    7.2322 H         1 <0>         0.1866
     37 H13        -6.4093    3.3237    9.1840 H         1 <0>         0.0788
     38 H14        -7.7208    2.1385    8.9753 H         1 <0>         0.0845
     39 H15        -7.0279    2.4242   10.5898 H         1 <0>         0.1036
     40 H16        -3.2727    0.0294   12.0593 H         1 <0>         0.4073
     41 H17        -3.7767    1.0162   13.3223 H         1 <0>         0.4074
@<TRIPOS>BOND
     1    1    2 1
     2    1   25 1
     3    1   26 1
     4    1   27 1
     5    2    3 1
     6    2    4 1
     7    2   28 1
     8    3   29 1
     9    3   30 1
    10    3   31 1
    11    4    5 1
    12    4   32 1
    13    4   33 1
    14    5    9 1
    15    5    6 2
    16    6    7 1
    17    7    8 2
    18    7   10 1
    19    8    9 1
    20    8   34 1
    21   10   11 1
    22   10   12 2
    23   12   13 1
    24   13   14 2
    25   13   15 2
    26   13   16 1
    27   16   20 2
    28   16   17 1
    29   17   18 2
    30   17   35 1
    31   18   19 1
    32   18   22 1
    33   19   20 1
    34   19   21 1
    35   20   36 1
    36   21   37 1
    37   21   38 1
    38   21   39 1
    39   22   23 2
    40   22   24 am
    41   24   40 1
    42   24   41 1
@<TRIPOS>MOLECULE
ZINC66577725
   38    39     0     0     0
SMALL
USER_CHARGES

@<TRIPOS>ATOM
      1 C1         -0.0187    1.5258    0.0104 C.3       1 <0>        -0.1647
      2 C2          0.0021   -0.0041    0.0020 C.3       1 <0>         0.1246
      3 N1          0.7106   -0.4894    1.1889 N.pl3     1 <0>        -0.3721
      4 C3          0.2288   -1.3599    2.1005 C.2       1 <0>         0.1634
      5 C4          1.1871   -1.5491    3.0369 C.2       1 <0>        -0.7520
      6 C5          2.2925   -0.7673    2.6855 C.2       1 <0>         0.1302
      7 N2          2.0102   -0.1363    1.5746 N.2       1 <0>        -0.3045
      8 S1          1.0640   -2.5946    4.4498 S.o2      1 <0>         2.6362
      9 O1          1.9863   -2.0934    5.4076 O.2       1 <0>        -1.0334
     10 O2         -0.3219   -2.7382    4.7292 O.2       1 <0>        -1.0386
     11 N3          1.6138   -4.0909    4.0012 N.2       1 <0>        -1.0910
     12 C6          1.6329   -5.1369    4.9305 C.ar      1 <0>         0.2399
     13 C7          1.1854   -4.9222    6.2276 C.ar      1 <0>        -0.1771
     14 C8          1.2042   -5.9551    7.1439 C.ar      1 <0>        -0.1602
     15 C9          1.6702   -7.2068    6.7692 C.ar      1 <0>         0.1035
     16 C10         2.1176   -7.4220    5.4743 C.ar      1 <0>        -0.6458
     17 C11         2.0938   -6.3915    4.5547 C.ar      1 <0>        -0.0541
     18 S2          2.7104   -9.0121    5.0001 S.o2      1 <0>         2.7083
     19 O3          1.7389   -9.9538    5.4345 O.2       1 <0>        -0.9670
     20 O4          3.1149   -8.9063    3.6420 O.2       1 <0>        -0.9766
     21 N4          4.0816   -9.3062    5.8808 N.pl3     1 <0>        -1.2484
     22 O5          1.6887   -8.2235    7.6724 O.3       1 <0>        -0.3227
     23 C12         1.2138   -7.9312    8.9880 C.3       1 <0>         0.0333
     24 H1          1.0039    1.9031    0.0027 H         1 <0>         0.0707
     25 H2         -0.5459    1.8868   -0.8726 H         1 <0>         0.0741
     26 H3         -0.5289    1.8773    0.9072 H         1 <0>         0.0604
     27 H4         -1.0205   -0.3814    0.0098 H         1 <0>         0.0973
     28 H5          0.5123   -0.3556   -0.8948 H         1 <0>         0.0867
     29 H6         -0.7470   -1.8225    2.0856 H         1 <0>         0.1863
     30 H7          3.2205   -0.7001    3.2338 H         1 <0>         0.1931
     31 H8          0.8232   -3.9476    6.5197 H         1 <0>         0.1093
     32 H9          0.8562   -5.7883    8.1526 H         1 <0>         0.1202
     33 H10         2.4378   -6.5605    3.5450 H         1 <0>         0.1442
     34 H11         4.4026   -8.6449    6.5137 H         1 <0>         0.4160
     35 H12         4.5637  -10.1397    5.7638 H         1 <0>         0.4126
     36 H13         1.2827   -8.8261    9.6064 H         1 <0>         0.0941
     37 H14         1.8213   -7.1392    9.4260 H         1 <0>         0.0514
     38 H15         0.1750   -7.6052    8.9352 H         1 <0>         0.0524
@<TRIPOS>BOND
     1    1    2 1
     2    1   24 1
     3    1   25 1
     4    1   26 1
     5    2    3 1
     6    2   27 1
     7    2   28 1
     8    3    7 1
     9    3    4 1
    10    4    5 2
    11    4   29 1
    12    5    6 1
    13    5    8 1
    14    6    7 2
    15    6   30 1
    16    8    9 2
    17    8   10 2
    18    8   11 1
    19   11   12 1
    20   12   17 ar
    21   12   13 ar
    22   13   14 ar
    23   13   31 1
    24   14   15 ar
    25   14   32 1
    26   15   16 ar
    27   15   22 1
    28   16   17 ar
    29   16   18 1
    30   17   33 1
    31   18   19 2
    32   18   20 2
    33   18   21 1
    34   21   34 1
    35   21   35 1
    36   22   23 1
    37   23   36 1
    38   23   37 1
    39   23   38 1
@<TRIPOS>MOLECULE
ZINC37207062
   29    29     0     0     0
SMALL
USER_CHARGES

@<TRIPOS>ATOM
      1 C1         -0.0178    1.4608    0.0101 C.3       1 <0>         0.0871
      2 N1          0.0021   -0.0041    0.0020 N.am      1 <0>        -0.7340
      3 C2         -1.1558   -0.6938    0.0094 C.2       1 <0>         0.5107
      4 O1         -2.2142   -0.1017    0.0227 O.2       1 <0>        -0.5284
      5 C3         -1.1354   -2.2006    0.0011 C.3       1 <0>         0.0907
      6 N2         -2.5098   -2.7077    0.0115 N.pl3     1 <0>        -1.1020
      7 S1         -2.8107   -4.2919   -0.3654 S.o2      1 <0>         2.7010
      8 O2         -4.2139   -4.4793   -0.2416 O.2       1 <0>        -0.9432
      9 O3         -2.1093   -4.5629   -1.5711 O.2       1 <0>        -0.9443
     10 C4         -2.0587   -5.2772    0.8870 C.ar      1 <0>        -0.6859
     11 C5         -2.8427   -6.0477    1.7183 C.ar      1 <0>         0.0376
     12 C6         -2.2451   -6.8291    2.7115 C.ar      1 <0>        -0.1372
     13 C7         -0.8532   -6.8229    2.8543 C.ar      1 <0>         0.0512
     14 C8         -0.0807   -6.0464    2.0146 C.ar      1 <0>        -0.1356
     15 C9         -0.6803   -5.2796    1.0295 C.ar      1 <0>         0.0463
     16 Cl1         0.2990   -4.3111   -0.0272 Cl        1 <0>        -0.0562
     17 Cl2        -0.1000   -7.7888    4.0845 Cl        1 <0>        -0.0141
     18 C10        -3.0773   -7.6551    3.6043 C.2       1 <0>         0.5176
     19 O4         -4.2938   -7.6580    3.4773 O.co2     1 <0>        -0.6737
     20 O5         -2.5514   -8.3377    4.4724 O.co2     1 <0>        -0.6532
     21 H1          1.0048    1.8381    0.0023 H         1 <0>         0.0770
     22 H2         -0.5450    1.8219   -0.8730 H         1 <0>         0.0611
     23 H3         -0.5280    1.8123    0.9069 H         1 <0>         0.0615
     24 H4          0.8486   -0.4776   -0.0086 H         1 <0>         0.4047
     25 H5         -0.6252   -2.5521   -0.8957 H         1 <0>         0.1128
     26 H6         -0.6082   -2.5617    0.8841 H         1 <0>         0.1042
     27 H7         -3.2435   -2.1155    0.2391 H         1 <0>         0.4295
     28 H8         -3.9165   -6.0476    1.6029 H         1 <0>         0.1673
     29 H9          0.9938   -6.0402    2.1230 H         1 <0>         0.1476
@<TRIPOS>BOND
     1    1    2 1
     2    1   21 1
     3    1   22 1
     4    1   23 1
     5    2    3 am
     6    2   24 1
     7    3    4 2
     8    3    5 1
     9    5    6 1
    10    5   25 1
    11    5   26 1
    12    6    7 1
    13    6   27 1
    14    7    8 2
    15    7    9 2
    16    7   10 1
    17   10   15 ar
    18   10   11 ar
    19   11   12 ar
    20   11   28 1
    21   12   13 ar
    22   12   18 1
    23   13   14 ar
    24   13   17 1
    25   14   15 ar
    26   14   29 1
    27   15   16 1
    28   18   19 2
    29   18   20 1
@<TRIPOS>MOLECULE
ZINC31351856
   42    44     0     0     0
SMALL
USER_CHARGES

@<TRIPOS>ATOM
      1 C1          6.6750   -3.5013   -3.1650 C.3       1 <0>         0.0285
      2 O1          6.1830   -3.2530   -1.8466 O.3       1 <0>        -0.3114
      3 C2          5.2725   -2.2525   -1.7055 C.ar      1 <0>         0.0746
      4 C3          4.7873   -1.5987   -2.8202 C.ar      1 <0>        -0.1645
      5 C4          3.8506   -0.5698   -2.6716 C.ar      1 <0>        -0.0286
      6 C5          3.4100   -0.2082   -1.3940 C.ar      1 <0>        -0.0470
      7 C6          3.8981   -0.8646   -0.2858 C.ar      1 <0>        -0.1764
      8 C7          4.8244   -1.8906   -0.4338 C.ar      1 <0>         0.2253
      9 N1          5.3112   -2.5565    0.6911 N.pl3     1 <0>        -0.8602
     10 N2          3.3684    0.0795   -3.7702 N.2       1 <0>        -0.1624
     11 N3          3.4825   -0.4565   -4.9380 N.2       1 <0>        -0.1506
     12 C8          3.4145   -1.8139   -5.0762 C.ar      1 <0>        -0.0305
     13 C9          3.9186   -2.4159   -6.2198 C.ar      1 <0>        -0.0271
     14 C10         3.8451   -3.8096   -6.3543 C.ar      1 <0>        -0.0076
     15 C11         3.2570   -4.5817   -5.3198 C.ar      1 <0>         0.0128
     16 C12         3.1858   -5.9776   -5.4603 C.ar      1 <0>        -0.0936
     17 C13         3.6799   -6.5693   -6.5826 C.ar      1 <0>        -0.1291
     18 C14         4.2578   -5.8111   -7.5992 C.ar      1 <0>        -0.0310
     19 C15         4.3448   -4.4567   -7.4992 C.ar      1 <0>        -0.6446
     20 S1          5.0801   -3.5184   -8.7967 S.o2      1 <0>         2.6959
     21 O2          6.4571   -3.2616   -8.4043 O.2       1 <0>        -1.0620
     22 O3          5.0008   -4.3294  -10.0017 O.2       1 <0>        -1.0650
     23 O4          4.3113   -2.2894   -8.9173 O.3       1 <0>        -1.0545
     24 C16         2.7546   -3.9417   -4.1718 C.ar      1 <0>        -0.6426
     25 C17         2.8386   -2.5924   -4.0545 C.ar      1 <0>        -0.0277
     26 S2          2.0227   -4.8937   -2.8824 S.o2      1 <0>         2.6947
     27 O5          3.1094   -5.3758   -2.0442 O.2       1 <0>        -1.0524
     28 O6          1.1295   -4.0046   -2.1559 O.2       1 <0>        -1.0626
     29 O7          1.3027   -5.9852   -3.5197 O.3       1 <0>        -1.0600
     30 H1          5.8591   -3.8514   -3.7973 H         1 <0>         0.0595
     31 H2          7.0860   -2.5806   -3.5789 H         1 <0>         0.0516
     32 H3          7.4551   -4.2615   -3.1245 H         1 <0>         0.1004
     33 H4          5.1300   -1.8805   -3.8049 H         1 <0>         0.1382
     34 H5          2.6874    0.5858   -1.2766 H         1 <0>         0.1360
     35 H6          3.5575   -0.5842    0.7000 H         1 <0>         0.1344
     36 H7          5.9602   -3.2701    0.5893 H         1 <0>         0.4053
     37 H8          5.0006   -2.3059    1.5752 H         1 <0>         0.3964
     38 H9          4.3635   -1.8161   -7.0000 H         1 <0>         0.1743
     39 H10         2.7412   -6.5790   -4.6811 H         1 <0>         0.1632
     40 H11         3.6234   -7.6428   -6.6864 H         1 <0>         0.1263
     41 H12         4.6424   -6.3056   -8.4789 H         1 <0>         0.1351
     42 H13         2.4545   -2.1093   -3.1682 H         1 <0>         0.1387
@<TRIPOS>BOND
     1    1    2 1
     2    1   30 1
     3    1   31 1
     4    1   32 1
     5    2    3 1
     6    3    8 ar
     7    3    4 ar
     8    4    5 ar
     9    4   33 1
    10    5    6 ar
    11    5   10 1
    12    6    7 ar
    13    6   34 1
    14    7    8 ar
    15    7   35 1
    16    8    9 1
    17    9   36 1
    18    9   37 1
    19   10   11 2
    20   11   12 1
    21   12   25 ar
    22   12   13 ar
    23   13   14 ar
    24   13   38 1
    25   14   19 ar
    26   14   15 ar
    27   15   16 ar
    28   15   24 ar
    29   16   17 ar
    30   16   39 1
    31   17   18 ar
    32   17   40 1
    33   18   19 ar
    34   18   41 1
    35   19   20 1
    36   20   21 2
    37   20   22 2
    38   20   23 1
    39   24   25 ar
    40   24   26 1
    41   25   42 1
    42   26   27 2
    43   26   28 2
    44   26   29 1
@<TRIPOS>MOLECULE
ZINC56409525
   43    44     0     0     0
SMALL
USER_CHARGES

@<TRIPOS>ATOM
      1 C1         -0.1508    1.2946   -0.2289 C.3       1 <0>        -0.1145
      2 C2         -0.1223   -0.2109   -0.1677 C.ar      1 <0>        -0.0957
      3 C3         -0.1555   -0.9487   -1.3365 C.ar      1 <0>        -0.1101
      4 C4         -0.1302   -2.3274   -1.2885 C.ar      1 <0>        -0.0949
      5 C5         -0.0703   -2.9820   -0.0566 C.ar      1 <0>        -0.1085
      6 C6         -0.0364   -2.2376    1.1224 C.ar      1 <0>        -0.0604
      7 C7         -0.0570   -0.8527    1.0630 C.ar      1 <0>         0.1276
      8 N1         -0.0174   -0.1010    2.2429 N.am      1 <0>        -0.6731
      9 C8         -0.6329   -0.5555    3.3525 C.2       1 <0>         0.5034
     10 O1         -1.1470   -1.6541    3.3539 O.2       1 <0>        -0.5140
     11 C9         -0.6823    0.3012    4.5913 C.3       1 <0>        -0.1714
     12 C10        -0.0436   -4.4591   -0.0021 C.2       1 <0>         0.5404
     13 O2          0.0085   -5.0269    1.0716 O.2       1 <0>        -0.5332
     14 N2         -0.0769   -5.1762   -1.1427 N.am      1 <0>        -0.6244
     15 C11        -0.1695   -6.5729   -1.0895 C.ar      1 <0>         0.0655
     16 C12        -0.7282   -7.1911    0.0192 C.ar      1 <0>        -0.0866
     17 C13        -0.8191   -8.5695    0.0694 C.ar      1 <0>        -0.2086
     18 C14        -0.3541   -9.3361   -0.9835 C.ar      1 <0>        -0.0803
     19 C15         0.2046   -8.7286   -2.0922 C.ar      1 <0>        -0.2463
     20 C16         0.2946   -7.3458   -2.1538 C.ar      1 <0>         0.2689
     21 N3          0.8541   -6.7284   -3.2776 N.2       1 <0>        -1.1093
     22 S1          1.4044   -7.6484   -4.5398 S.o2      1 <0>         2.5310
     23 O3          2.4779   -8.4044   -3.9964 O.2       1 <0>        -1.0289
     24 O4          0.2463   -8.2964   -5.0480 O.2       1 <0>        -1.0303
     25 C17         2.0325   -6.4517   -5.7498 C.3       1 <0>        -0.6385
     26 H1          0.8688    1.6751   -0.2890 H         1 <0>         0.0720
     27 H2         -0.7095    1.6118   -1.1095 H         1 <0>         0.0723
     28 H3         -0.6324    1.6856    0.6673 H         1 <0>         0.0632
     29 H4         -0.2018   -0.4442   -2.2902 H         1 <0>         0.1314
     30 H5         -0.1570   -2.9002   -2.2036 H         1 <0>         0.1335
     31 H6          0.0099   -2.7383    2.0782 H         1 <0>         0.1531
     32 H7          0.4530    0.7470    2.2621 H         1 <0>         0.4097
     33 H8         -1.1989    1.2345    4.3672 H         1 <0>         0.0896
     34 H9         -1.2167   -0.2297    5.3791 H         1 <0>         0.0963
     35 H10         0.3328    0.5185    4.9235 H         1 <0>         0.0903
     36 H11        -0.0368   -4.7251   -2.0005 H         1 <0>         0.4122
     37 H12        -1.0920   -6.5956    0.8434 H         1 <0>         0.1306
     38 H13        -1.2541   -9.0492    0.9337 H         1 <0>         0.1039
     39 H14        -0.4275  -10.4127   -0.9391 H         1 <0>         0.1010
     40 H15         0.5670   -9.3304   -2.9126 H         1 <0>         0.1042
     41 H16         2.8332   -5.8655   -5.2990 H         1 <0>         0.1143
     42 H17         2.4170   -6.9831   -6.6203 H         1 <0>         0.1003
     43 H18         1.2246   -5.7876   -6.0570 H         1 <0>         0.1143
@<TRIPOS>BOND
     1    1    2 1
     2    1   26 1
     3    1   27 1
     4    1   28 1
     5    2    7 ar
     6    2    3 ar
     7    3    4 ar
     8    3   29 1
     9    4    5 ar
    10    4   30 1
    11    5    6 ar
    12    5   12 1
    13    6    7 ar
    14    6   31 1
    15    7    8 1
    16    8    9 am
    17    8   32 1
    18    9   10 2
    19    9   11 1
    20   11   33 1
    21   11   34 1
    22   11   35 1
    23   12   13 2
    24   12   14 am
    25   14   15 1
    26   14   36 1
    27   15   20 ar
    28   15   16 ar
    29   16   17 ar
    30   16   37 1
    31   17   18 ar
    32   17   38 1
    33   18   19 ar
    34   18   39 1
    35   19   20 ar
    36   19   40 1
    37   20   21 1
    38   21   22 1
    39   22   23 2
    40   22   24 2
    41   22   25 1
    42   25   41 1
    43   25   42 1
    44   25   43 1
@<TRIPOS>MOLECULE
ZINC63259081
   49    50     0     0     0
SMALL
USER_CHARGES

@<TRIPOS>ATOM
      1 C1         -0.0187    1.5258    0.0104 C.3       1 <0>        -0.1422
      2 C2          0.0021   -0.0041    0.0020 C.3       1 <0>        -0.5978
      3 S1         -1.6997   -0.6320    0.0149 S.o2      1 <0>         2.5169
      4 O1         -2.3220   -0.3339    1.2571 O.2       1 <0>        -1.0295
      5 O2         -2.3456   -0.3206   -1.2120 O.2       1 <0>        -1.0294
      6 N1         -1.5451   -2.2807    0.0046 N.2       1 <0>        -1.0394
      7 C3         -2.6777   -3.0843    0.0111 C.ar      1 <0>         0.3317
      8 C4         -3.9424   -2.5089    0.0204 C.ar      1 <0>        -0.2610
      9 C5         -5.0660   -3.3094    0.0264 C.ar      1 <0>        -0.0467
     10 C6         -4.9440   -4.6901    0.0231 C.ar      1 <0>        -0.2412
     11 C7         -3.6988   -5.2789    0.0139 C.ar      1 <0>        -0.0422
     12 C8         -2.5509   -4.4821    0.0023 C.ar      1 <0>        -0.2252
     13 C9         -1.2151   -5.1057   -0.0137 C.2       1 <0>         0.5652
     14 O3         -0.2187   -4.4086   -0.0195 O.2       1 <0>        -0.5013
     15 N2         -1.0982   -6.4483   -0.0220 N.am      1 <0>        -0.7476
     16 C10         0.2292   -7.0680   -0.0380 C.3       1 <0>         0.1496
     17 C11         0.7308   -7.1621   -1.4804 C.3       1 <0>        -0.1295
     18 C12         2.1171   -7.8092   -1.4971 C.3       1 <0>        -0.0953
     19 C13         2.0319   -9.2128   -0.8941 C.3       1 <0>        -0.1066
     20 C14         1.5303   -9.1188    0.5482 C.3       1 <0>        -0.1041
     21 C15         0.1440   -8.4716    0.5649 C.3       1 <0>        -0.1235
     22 C16         3.3974   -9.8503   -0.9106 C.2       1 <0>         0.5157
     23 O4          4.3453   -9.2418   -1.3602 O.2       1 <0>        -0.5357
     24 N3          3.5652  -11.0965   -0.4255 N.am      1 <0>        -0.7393
     25 C17         4.8926  -11.7162   -0.4415 C.3       1 <0>         0.0865
     26 H1          1.0039    1.9031    0.0027 H         1 <0>         0.0681
     27 H2         -0.5459    1.8868   -0.8726 H         1 <0>         0.0636
     28 H3         -0.5289    1.8773    0.9072 H         1 <0>         0.0635
     29 H4          0.5123   -0.3556   -0.8948 H         1 <0>         0.1204
     30 H5          0.5293   -0.3651    0.8851 H         1 <0>         0.1202
     31 H6         -4.0460   -1.4339    0.0234 H         1 <0>         0.1054
     32 H7         -6.0468   -2.8574    0.0340 H         1 <0>         0.1033
     33 H8         -5.8301   -5.3076    0.0282 H         1 <0>         0.1037
     34 H9         -3.6097   -6.3552    0.0117 H         1 <0>         0.1041
     35 H10        -1.8930   -7.0044   -0.0175 H         1 <0>         0.3891
     36 H11         0.9201   -6.4621    0.5481 H         1 <0>         0.0848
     37 H12         0.0398   -7.7680   -2.0665 H         1 <0>         0.0608
     38 H13         0.7914   -6.1621   -1.9099 H         1 <0>         0.0759
     39 H14         2.4744   -7.8763   -2.5246 H         1 <0>         0.0689
     40 H15         2.8080   -7.2033   -0.9109 H         1 <0>         0.0719
     41 H16         1.3410   -9.8188   -1.4803 H         1 <0>         0.0978
     42 H17         1.4697  -10.1187    0.9778 H         1 <0>         0.0672
     43 H18         2.2212   -8.5128    1.1344 H         1 <0>         0.0714
     44 H19        -0.2133   -8.4046    1.5925 H         1 <0>         0.0728
     45 H20        -0.5469   -9.0775   -0.0212 H         1 <0>         0.0680
     46 H21         2.8071  -11.5831   -0.0659 H         1 <0>         0.4014
     47 H22         5.5835  -11.1102    0.1447 H         1 <0>         0.0585
     48 H23         4.8319  -12.7161   -0.0120 H         1 <0>         0.0731
     49 H24         5.2499  -11.7832   -1.4691 H         1 <0>         0.0579
@<TRIPOS>BOND
     1    1    2 1
     2    1   26 1
     3    1   27 1
     4    1   28 1
     5    2    3 1
     6    2   29 1
     7    2   30 1
     8    3    4 2
     9    3    5 2
    10    3    6 1
    11    6    7 1
    12    7   12 ar
    13    7    8 ar
    14    8    9 ar
    15    8   31 1
    16    9   10 ar
    17    9   32 1
    18   10   11 ar
    19   10   33 1
    20   11   12 ar
    21   11   34 1
    22   12   13 1
    23   13   14 2
    24   13   15 am
    25   15   16 1
    26   15   35 1
    27   16   21 1
    28   16   17 1
    29   16   36 1
    30   17   18 1
    31   17   37 1
    32   17   38 1
    33   18   19 1
    34   18   39 1
    35   18   40 1
    36   19   20 1
    37   19   22 1
    38   19   41 1
    39   20   21 1
    40   20   42 1
    41   20   43 1
    42   21   44 1
    43   21   45 1
    44   22   23 2
    45   22   24 am
    46   24   25 1
    47   24   46 1
    48   25   47 1
    49   25   48 1
    50   25   49 1
@<TRIPOS>MOLECULE
ZINC66290428
   36    37     0     0     0
SMALL
USER_CHARGES

@<TRIPOS>ATOM
      1 C1         -1.7213    1.1189    0.2040 C.3       1 <0>        -0.0890
      2 C2         -1.3488   -0.3401    0.1432 C.ar      1 <0>        -0.0304
      3 C3         -1.2593   -0.9733   -1.0639 C.ar      1 <0>        -0.1938
      4 C4         -0.9157   -2.3217   -1.1210 C.ar      1 <0>         0.2708
      5 C5         -0.6620   -3.0298    0.0515 C.ar      1 <0>        -0.2772
      6 C6         -0.7496   -2.4035    1.2619 C.ar      1 <0>        -0.0422
      7 C7         -1.0886   -1.0466    1.3230 C.ar      1 <0>        -0.2209
      8 C8         -1.1781   -0.3666    2.6247 C.2       1 <0>         0.5379
      9 O1         -0.5601    0.6718    2.8163 O.co2     1 <0>        -0.7073
     10 O2         -1.8706   -0.8396    3.5156 O.co2     1 <0>        -0.7123
     11 N1         -0.8261   -2.9623   -2.3503 N.2       1 <0>        -1.0962
     12 S1         -0.4176   -4.5656   -2.4207 S.o2      1 <0>         2.6185
     13 O3          0.9239   -4.6634   -1.9624 O.2       1 <0>        -1.0417
     14 O4         -1.4839   -5.2833   -1.8148 O.2       1 <0>        -1.0372
     15 C9         -0.4035   -5.0254   -4.1216 C.2       1 <0>        -0.6808
     16 C10        -1.4911   -5.5159   -4.8509 C.2       1 <0>        -0.0417
     17 C11        -1.0465   -5.7468   -6.1353 C.2       1 <0>        -0.0887
     18 N2          0.2854   -5.4022   -6.1814 N.pl3     1 <0>        -0.4138
     19 C12         0.6614   -4.9610   -4.9562 C.2       1 <0>         0.1302
     20 C13         1.1508   -5.4914   -7.3601 C.3       1 <0>         0.0682
     21 C14        -1.8467   -6.2659   -7.2496 C.2       1 <0>         0.6049
     22 O5         -1.3161   -6.5131   -8.3165 O.2       1 <0>        -0.5651
     23 N3         -3.1697   -6.4692   -7.0919 N.am      1 <0>        -0.8443
     24 H1         -0.8155    1.7234    0.2509 H         1 <0>         0.0601
     25 H2         -2.2906    1.3859   -0.6863 H         1 <0>         0.0400
     26 H3         -2.3271    1.3025    1.0913 H         1 <0>         0.0578
     27 H4         -1.4556   -0.4277   -1.9750 H         1 <0>         0.1018
     28 H5         -0.3961   -4.0754    0.0033 H         1 <0>         0.0879
     29 H6         -0.5531   -2.9531    2.1706 H         1 <0>         0.0960
     30 H7         -2.4909   -5.6828   -4.4781 H         1 <0>         0.1542
     31 H8          1.6495   -4.6171   -4.6884 H         1 <0>         0.1849
     32 H9          1.0334   -4.5929   -7.9659 H         1 <0>         0.0749
     33 H10         2.1895   -5.5821   -7.0422 H         1 <0>         0.0839
     34 H11         0.8735   -6.3656   -7.9491 H         1 <0>         0.0975
     35 H12        -3.6058   -6.2061   -6.2663 H         1 <0>         0.4082
     36 H13        -3.6857   -6.8787   -7.8039 H         1 <0>         0.4049
@<TRIPOS>BOND
     1    1    2 1
     2    1   24 1
     3    1   25 1
     4    1   26 1
     5    2    7 ar
     6    2    3 ar
     7    3    4 ar
     8    3   27 1
     9    4    5 ar
    10    4   11 1
    11    5    6 ar
    12    5   28 1
    13    6    7 ar
    14    6   29 1
    15    7    8 1
    16    8    9 2
    17    8   10 1
    18   11   12 1
    19   12   13 2
    20   12   14 2
    21   12   15 1
    22   15   19 2
    23   15   16 1
    24   16   17 2
    25   16   30 1
    26   17   18 1
    27   17   21 1
    28   18   19 1
    29   18   20 1
    30   19   31 1
    31   20   32 1
    32   20   33 1
    33   20   34 1
    34   21   22 2
    35   21   23 am
    36   23   35 1
    37   23   36 1
@<TRIPOS>MOLECULE
ZINC26541513
   42    44     0     0     0
SMALL
USER_CHARGES
4-chloro-3-[[5-(pyrrolidine-1-carbonyl)-1H-pyrrol-3-yl]sulfonylamino]benzamide
@<TRIPOS>ATOM
      1 C1          2.5392    0.3450    0.4926 C.ar      1 <0>        -0.1670
      2 C2          2.4061    1.7167    0.4237 C.ar      1 <0>        -0.0940
      3 C3          1.1559    2.2879    0.2683 C.ar      1 <0>        -0.0600
      4 C4          0.0243    1.4826    0.1815 C.ar      1 <0>         0.2492
      5 C5          0.1483    0.1044    0.2502 C.ar      1 <0>        -0.1769
      6 C6          1.4100   -0.4713    0.4065 C.ar      1 <0>        -0.1084
      7 C7          1.5503   -1.9408    0.4802 C.2       1 <0>         0.5622
      8 O1          0.5658   -2.6499    0.4046 O.2       1 <0>        -0.5456
      9 N1          2.7697   -2.4946    0.6312 N.am      1 <0>        -0.8797
     10 N2         -1.2366    2.0638    0.0191 N.2       1 <0>        -1.0494
     11 S1         -2.5622    1.3804    0.7388 S.o2      1 <0>         2.6182
     12 O2         -3.6512    2.2629    0.5055 O.2       1 <0>        -0.9936
     13 O3         -2.5860    0.0179    0.3357 O.2       1 <0>        -1.0368
     14 C8         -2.2725    1.3863    2.4768 C.2       1 <0>        -0.7340
     15 C9         -2.6206    2.4079    3.3660 C.2       1 <0>        -0.0095
     16 C10        -2.2152    2.0077    4.6215 C.2       1 <0>        -0.0943
     17 N3         -1.6329    0.7670    4.4934 N.pl3     1 <0>        -0.5571
     18 H1         -1.2305    0.2542    5.3794 H         1 <0>         0.4324
     19 C11        -1.6784    0.3995    3.1896 C.2       1 <0>         0.1432
     20 C12        -2.3753    2.7659    5.8669 C.2       1 <0>         0.6127
     21 O4         -2.9102    3.8588    5.8494 O.2       1 <0>        -0.5269
     22 N4         -1.9300    2.2521    7.0306 N.am      1 <0>        -0.6289
     23 C13        -1.2742    0.9466    7.1956 C.3       1 <0>         0.0784
     24 C14        -0.9643    0.7761    8.6977 C.3       1 <0>        -0.1300
     25 C15        -1.9774    1.7393    9.3709 C.3       1 <0>        -0.1276
     26 C16        -2.0257    2.9032    8.3498 C.3       1 <0>         0.1096
     27 Cl1         0.9980    4.0145    0.1819 Cl        1 <0>        -0.0789
     28 H2          3.5170   -0.0972    0.6136 H         1 <0>         0.1130
     29 H3          3.2810    2.3464    0.4905 H         1 <0>         0.1194
     30 H4         -0.7286   -0.5225    0.1827 H         1 <0>         0.1674
     31 H5          2.8741   -3.5883    0.6860 H         1 <0>         0.4146
     32 H6          3.6605   -1.8529    0.6996 H         1 <0>         0.4152
     33 H7         -3.1140    3.3356    3.1162 H         1 <0>         0.1534
     34 H8         -1.3005   -0.5276    2.7848 H         1 <0>         0.1797
     35 H9         -1.9491    0.1507    6.8476 H         1 <0>         0.0714
     36 H10        -0.3465    0.9250    6.6049 H         1 <0>         0.0729
     37 H11        -1.1204   -0.2735    8.9874 H         1 <0>         0.0856
     38 H12         0.0813    1.0581    8.8907 H         1 <0>         0.0810
     39 H13        -2.9438    1.2282    9.4930 H         1 <0>         0.0785
     40 H14        -1.5957    2.0422   10.3571 H         1 <0>         0.0877
     41 H15        -1.1800    3.5945    8.4797 H         1 <0>         0.0705
     42 H16        -2.9703    3.4632    8.4147 H         1 <0>         0.0822
@<TRIPOS>BOND
     1    1    6 ar
     2    1    2 ar
     3    1   28 1
     4    2    3 ar
     5    2   29 1
     6    3    4 ar
     7    3   27 1
     8    4    5 ar
     9    4   10 1
    10    5    6 ar
    11    5   30 1
    12    6    7 1
    13    7    8 2
    14    7    9 am
    15    9   31 1
    16    9   32 1
    17   10   11 1
    18   11   12 2
    19   11   13 2
    20   11   14 1
    21   14   19 2
    22   14   15 1
    23   15   16 2
    24   15   33 1
    25   16   17 1
    26   16   20 1
    27   17   18 1
    28   17   19 1
    29   19   34 1
    30   20   21 2
    31   20   22 am
    32   22   26 1
    33   22   23 1
    34   23   24 1
    35   23   35 1
    36   23   36 1
    37   24   25 1
    38   24   37 1
    39   24   38 1
    40   25   26 1
    41   25   39 1
    42   25   40 1
    43   26   41 1
    44   26   42 1
@<TRIPOS>MOLECULE
ZINC40052887
   51    53     0     0     0
SMALL
USER_CHARGES

@<TRIPOS>ATOM
      1 C1          0.6997    1.4979   -0.6007 C.ar      1 <0>        -0.0750
      2 C2          1.9130    2.0404   -0.9777 C.ar      1 <0>        -0.1457
      3 C3          2.9742    1.2067   -1.2993 C.ar      1 <0>         0.1145
      4 C4          2.8139   -0.1701   -1.2414 C.ar      1 <0>        -0.2078
      5 C5          1.5986   -0.7076   -0.8638 C.ar      1 <0>        -0.0498
      6 C6          0.5425    0.1254   -0.5438 C.ar      1 <0>        -0.1046
      7 C7         -0.7820   -0.4636   -0.1318 C.3       1 <0>         0.2656
      8 H1         -1.3992    0.2988    0.3435 H         1 <0>         0.0705
      9 C8         -1.4949   -1.0322   -1.3365 C.2       1 <0>        -0.5025
     10 C9         -1.6620   -2.3549   -1.1032 C.2       1 <0>         0.2652
     11 C10        -1.0859   -2.6918    0.2157 C.2       1 <0>         0.5114
     12 O1         -1.0785   -3.8015    0.7105 O.2       1 <0>        -0.5336
     13 N1         -0.5703   -1.5873    0.7882 N.am      1 <0>        -0.6116
     14 C11         0.0854   -1.5185    2.0964 C.3       1 <0>         0.1413
     15 C12        -0.9586   -1.2238    3.1753 C.3       1 <0>        -0.1391
     16 C13        -0.2738   -1.1520    4.5416 C.3       1 <0>         0.0803
     17 O2         -1.2489   -0.8768    5.5493 O.3       1 <0>        -0.5739
     18 O3         -2.2615   -3.2296   -1.9434 O.3       1 <0>        -0.6511
     19 C14        -1.9231   -0.2936   -2.5285 C.2       1 <0>         0.5041
     20 O4         -1.4374   -0.5548   -3.6131 O.2       1 <0>        -0.4715
     21 C15        -2.9443    0.7676   -2.4126 C.ar      1 <0>        -0.1462
     22 C16        -3.5844    0.9945   -1.1914 C.ar      1 <0>        -0.0377
     23 C17        -4.5362    1.9858   -1.0891 C.ar      1 <0>        -0.1690
     24 C18        -4.8595    2.7572   -2.1955 C.ar      1 <0>         0.1071
     25 C19        -4.2274    2.5364   -3.4101 C.ar      1 <0>        -0.1688
     26 C20        -3.2696    1.5520   -3.5223 C.ar      1 <0>        -0.0470
     27 F1         -5.7941    3.7271   -2.0897 F         1 <0>        -0.1436
     28 O5          4.1686    1.7379   -1.6708 O.3       1 <0>        -0.2937
     29 C21         5.2166    0.8195   -1.9878 C.3       1 <0>         0.0397
     30 C22         6.4556    1.5852   -2.3746 C.2       1 <0>         0.5208
     31 O6          6.4425    2.7979   -2.3785 O.2       1 <0>        -0.5195
     32 N2          7.5782    0.9223   -2.7163 N.am      1 <0>        -0.8522
     33 H2         -0.1254    2.1465   -0.3459 H         1 <0>         0.1282
     34 H3          2.0351    3.1125   -1.0223 H         1 <0>         0.1283
     35 H4          3.6385   -0.8212   -1.4916 H         1 <0>         0.1223
     36 H5          1.4734   -1.7793   -0.8186 H         1 <0>         0.1212
     37 H6          0.5701   -2.4710    2.3104 H         1 <0>         0.0782
     38 H7          0.8324   -0.7247    2.0872 H         1 <0>         0.0769
     39 H8         -1.4433   -0.2713    2.9614 H         1 <0>         0.0731
     40 H9         -1.7056   -2.0176    3.1846 H         1 <0>         0.0747
     41 H10         0.2109   -2.1046    4.7556 H         1 <0>         0.0461
     42 H11         0.4732   -0.3582    4.5324 H         1 <0>         0.0459
     43 H12        -0.8848   -0.8172    6.4432 H         1 <0>         0.3767
     44 H13        -3.3340    0.3939   -0.3295 H         1 <0>         0.1442
     45 H14        -5.0316    2.1620   -0.1457 H         1 <0>         0.1356
     46 H15        -4.4833    3.1398   -4.2684 H         1 <0>         0.1342
     47 H16        -2.7747    1.3839   -4.4674 H         1 <0>         0.1392
     48 H17         5.4303    0.1979   -1.1183 H         1 <0>         0.0928
     49 H18         4.9061    0.1868   -2.8193 H         1 <0>         0.0945
     50 H19         7.5887   -0.0477   -2.7131 H         1 <0>         0.4036
     51 H20         8.3757    1.4151   -2.9652 H         1 <0>         0.4073
@<TRIPOS>BOND
     1    1    6 ar
     2    1    2 ar
     3    1   33 1
     4    2    3 ar
     5    2   34 1
     6    3    4 ar
     7    3   28 1
     8    4    5 ar
     9    4   35 1
    10    5    6 ar
    11    5   36 1
    12    6    7 1
    13    7    8 1
    14    7   13 1
    15    7    9 1
    16    9   10 2
    17    9   19 1
    18   10   11 1
    19   10   18 1
    20   11   12 2
    21   11   13 am
    22   13   14 1
    23   14   15 1
    24   14   37 1
    25   14   38 1
    26   15   16 1
    27   15   39 1
    28   15   40 1
    29   16   17 1
    30   16   41 1
    31   16   42 1
    32   17   43 1
    33   19   20 2
    34   19   21 1
    35   21   26 ar
    36   21   22 ar
    37   22   23 ar
    38   22   44 1
    39   23   24 ar
    40   23   45 1
    41   24   25 ar
    42   24   27 1
    43   25   26 ar
    44   25   46 1
    45   26   47 1
    46   28   29 1
    47   29   30 1
    48   29   48 1
    49   29   49 1
    50   30   31 2
    51   30   32 am
    52   32   50 1
    53   32   51 1
@<TRIPOS>MOLECULE
ZINC55677246
   38    39     0     0     0
SMALL
USER_CHARGES

@<TRIPOS>ATOM
      1 C1         -0.9362    1.4016    0.7026 C.3       1 <0>         0.0945
      2 N1         -0.7886   -0.0524    0.6006 N.am      1 <0>        -0.7449
      3 C2         -0.1806   -0.7390    1.5883 C.2       1 <0>         0.5667
      4 O1          0.2454   -0.1516    2.5641 O.2       1 <0>        -0.5391
      5 C3         -0.0322   -2.2023    1.4856 C.ar      1 <0>        -0.2588
      6 C4         -0.5164   -2.8788    0.3617 C.ar      1 <0>        -0.0312
      7 C5         -0.3792   -4.2342    0.2672 C.ar      1 <0>        -0.1868
      8 C6          0.2432   -4.9489    1.2876 C.ar      1 <0>         0.3222
      9 C7          0.7286   -4.2856    2.4103 C.ar      1 <0>        -0.2761
     10 C8          0.5988   -2.9169    2.5101 C.ar      1 <0>         0.0903
     11 Cl1         1.2090   -2.0835    3.9053 Cl        1 <0>        -0.0659
     12 N2          0.3794   -6.3289    1.1845 N.2       1 <0>        -1.0774
     13 S1          1.1191   -7.1808    2.3967 S.o2      1 <0>         2.6343
     14 O2          2.4797   -6.7713    2.4090 O.2       1 <0>        -1.0275
     15 O3          0.2807   -7.0728    3.5389 O.2       1 <0>        -1.0234
     16 C9          1.1081   -8.8777    1.9226 C.2       1 <0>        -0.6929
     17 C10         0.1021   -9.8060    2.2086 C.2       1 <0>        -0.0447
     18 C11         0.4911  -11.0079    1.6564 C.2       1 <0>        -0.0786
     19 N3          1.7097  -10.8096    1.0478 N.pl3     1 <0>        -0.4086
     20 C12         2.0698   -9.5132    1.2112 C.2       1 <0>         0.1337
     21 C13         2.4854  -11.8287    0.3364 C.3       1 <0>         0.0623
     22 C14        -0.2570  -12.2685    1.7087 C.2       1 <0>         0.6022
     23 O4          0.1423  -13.2390    1.0925 O.2       1 <0>        -0.5582
     24 N4         -1.3866  -12.3520    2.4391 N.am      1 <0>        -0.8428
     25 H1          0.0489    1.8625    0.7760 H         1 <0>         0.0539
     26 H2         -1.4483    1.7778   -0.1830 H         1 <0>         0.0673
     27 H3         -1.5188    1.6462    1.5907 H         1 <0>         0.0540
     28 H4         -1.1285   -0.5210   -0.1777 H         1 <0>         0.3972
     29 H5         -0.9997   -2.3288   -0.4322 H         1 <0>         0.1156
     30 H6         -0.7549   -4.7537   -0.6019 H         1 <0>         0.1237
     31 H7          1.2102   -4.8419    3.2008 H         1 <0>         0.1147
     32 H8         -0.8078   -9.6171    2.7588 H         1 <0>         0.1557
     33 H9          2.9769   -9.0614    0.8378 H         1 <0>         0.1861
     34 H10         2.2506  -11.7872   -0.7272 H         1 <0>         0.0793
     35 H11         3.5495  -11.6421    0.4812 H         1 <0>         0.0847
     36 H12         2.2332  -12.8149    0.7260 H         1 <0>         0.1039
     37 H13        -1.7447  -11.5605    2.8707 H         1 <0>         0.4072
     38 H14        -1.8415  -13.2035    2.5332 H         1 <0>         0.4076
@<TRIPOS>BOND
     1    1    2 1
     2    1   25 1
     3    1   26 1
     4    1   27 1
     5    2    3 am
     6    2   28 1
     7    3    4 2
     8    3    5 1
     9    5   10 ar
    10    5    6 ar
    11    6    7 ar
    12    6   29 1
    13    7    8 ar
    14    7   30 1
    15    8    9 ar
    16    8   12 1
    17    9   10 ar
    18    9   31 1
    19   10   11 1
    20   12   13 1
    21   13   14 2
    22   13   15 2
    23   13   16 1
    24   16   20 2
    25   16   17 1
    26   17   18 2
    27   17   32 1
    28   18   19 1
    29   18   22 1
    30   19   20 1
    31   19   21 1
    32   20   33 1
    33   21   34 1
    34   21   35 1
    35   21   36 1
    36   22   23 2
    37   22   24 am
    38   24   37 1
    39   24   38 1
@<TRIPOS>MOLECULE
ZINC64879654
   50    50     0     0     0
SMALL
USER_CHARGES

@<TRIPOS>ATOM
      1 C1         -0.0407    1.5362   -0.0385 C.3       1 <0>        -0.1483
      2 C2         -0.0155    0.0064   -0.0394 C.3       1 <0>        -0.1384
      3 C3         -1.4493   -0.5273   -0.0212 C.3       1 <0>         0.1388
      4 N1         -1.4251   -1.9921   -0.0220 N.am      1 <0>        -0.7486
      5 C4         -2.5810   -2.6852   -0.0075 C.2       1 <0>         0.7116
      6 O1         -3.6437   -2.0947    0.0064 O.2       1 <0>        -0.5844
      7 N2         -2.5587   -4.0327   -0.0083 N.am      1 <0>        -0.7426
      8 C5         -3.8151   -4.7861    0.0075 C.3       1 <0>         0.1816
      9 C6         -4.6073   -4.4302    1.2672 C.3       1 <0>        -0.1487
     10 C7         -4.6394   -4.4292   -1.2311 C.3       1 <0>        -0.1598
     11 C8         -3.5154   -6.2629    0.0031 C.2       1 <0>         0.5126
     12 O2         -4.2302   -7.0286    0.6145 O.2       1 <0>        -0.5058
     13 N3         -2.4530   -6.7329   -0.6802 N.am      1 <0>        -0.6646
     14 C9         -2.1175   -8.0892   -0.6055 C.ar      1 <0>         0.1711
     15 C10        -3.1178   -9.0489   -0.5104 C.ar      1 <0>        -0.2117
     16 C11        -2.7875  -10.3882   -0.4361 C.ar      1 <0>        -0.0707
     17 C12        -1.4621  -10.7782   -0.4565 C.ar      1 <0>        -0.1612
     18 C13        -0.4570   -9.8236   -0.5518 C.ar      1 <0>         0.2978
     19 C14        -0.7860   -8.4775   -0.6320 C.ar      1 <0>        -0.2755
     20 N4          0.8826  -10.2185   -0.5724 N.2       1 <0>        -1.0912
     21 S1          2.0797   -9.0799   -0.6861 S.o2      1 <0>         2.5221
     22 O3          1.8837   -8.4732   -1.9560 O.2       1 <0>        -1.0327
     23 O4          1.9679   -8.3159    0.5068 O.2       1 <0>        -1.0322
     24 C15         3.6265  -10.0275   -0.6784 C.3       1 <0>        -0.6373
     25 C16        -1.1063  -12.2403   -0.3747 C.3       1 <0>        -0.0767
     26 H1          0.9808    1.9164   -0.0514 H         1 <0>         0.0591
     27 H2         -0.5718    1.8913   -0.9216 H         1 <0>         0.0574
     28 H3         -0.5490    1.8906    0.8582 H         1 <0>         0.0573
     29 H4          0.4928   -0.3481   -0.9361 H         1 <0>         0.0694
     30 H5          0.5156   -0.3488    0.8437 H         1 <0>         0.0692
     31 H6         -1.9575   -0.1729    0.8755 H         1 <0>         0.0654
     32 H7         -1.9804   -0.1722   -0.9043 H         1 <0>         0.0656
     33 H8         -0.5773   -2.4632   -0.0331 H         1 <0>         0.3981
     34 H9         -1.7109   -4.5038   -0.0193 H         1 <0>         0.3985
     35 H10        -4.8241   -3.3620    1.2704 H         1 <0>         0.0863
     36 H11        -5.5421   -4.9907    1.2790 H         1 <0>         0.0752
     37 H12        -4.0201   -4.6844    2.1496 H         1 <0>         0.0573
     38 H13        -4.0750   -4.6828   -2.1285 H         1 <0>         0.0589
     39 H14        -5.5741   -4.9897   -1.2193 H         1 <0>         0.0718
     40 H15        -4.8561   -3.3610   -1.2279 H         1 <0>         0.0927
     41 H16        -1.9211   -6.1309   -1.2238 H         1 <0>         0.4020
     42 H17        -4.1547   -8.7474   -0.4943 H         1 <0>         0.1185
     43 H18        -3.5670  -11.1321   -0.3616 H         1 <0>         0.1071
     44 H19        -0.0069   -7.7337   -0.7106 H         1 <0>         0.1032
     45 H20         3.6381  -10.7110   -1.5274 H         1 <0>         0.1149
     46 H21         4.4720   -9.3435   -0.7510 H         1 <0>         0.0995
     47 H22         3.6988  -10.5975    0.2479 H         1 <0>         0.1148
     48 H23        -1.0557  -12.6587   -1.3799 H         1 <0>         0.0454
     49 H24        -0.1387  -12.3520    0.1145 H         1 <0>         0.0705
     50 H25        -1.8673  -12.7678    0.2005 H         1 <0>         0.0363
@<TRIPOS>BOND
     1    1    2 1
     2    1   26 1
     3    1   27 1
     4    1   28 1
     5    2    3 1
     6    2   29 1
     7    2   30 1
     8    3    4 1
     9    3   31 1
    10    3   32 1
    11    4    5 am
    12    4   33 1
    13    5    6 2
    14    5    7 am
    15    7    8 1
    16    7   34 1
    17    8    9 1
    18    8   10 1
    19    8   11 1
    20    9   35 1
    21    9   36 1
    22    9   37 1
    23   10   38 1
    24   10   39 1
    25   10   40 1
    26   11   12 2
    27   11   13 am
    28   13   14 1
    29   13   41 1
    30   14   19 ar
    31   14   15 ar
    32   15   16 ar
    33   15   42 1
    34   16   17 ar
    35   16   43 1
    36   17   18 ar
    37   17   25 1
    38   18   19 ar
    39   18   20 1
    40   19   44 1
    41   20   21 1
    42   21   22 2
    43   21   23 2
    44   21   24 1
    45   24   45 1
    46   24   46 1
    47   24   47 1
    48   25   48 1
    49   25   49 1
    50   25   50 1
@<TRIPOS>MOLECULE
ZINC67004669
   41    43     0     0     0
SMALL
USER_CHARGES

@<TRIPOS>ATOM
      1 C1         -0.0294    1.3763    0.0103 C.ar      1 <0>        -0.1633
      2 C2          1.1574    2.0855    0.0034 C.ar      1 <0>         0.0143
      3 C3          2.3645    1.4126   -0.0112 C.ar      1 <0>        -0.7014
      4 C4          2.3853    0.0302   -0.0185 C.ar      1 <0>         0.0766
      5 C5          1.1989   -0.6788   -0.0107 C.ar      1 <0>        -0.6343
      6 C6         -0.0086   -0.0056    0.0025 C.ar      1 <0>         0.0352
      7 S1          1.2253   -2.4406   -0.0211 S.o2      1 <0>         2.5960
      8 O1         -0.0193   -2.8622   -0.5620 O.2       1 <0>        -1.0219
      9 O2          2.4710   -2.8248   -0.5867 O.2       1 <0>        -1.0187
     10 N1          1.2485   -2.9393    1.5578 N.2       1 <0>        -1.0816
     11 C7          1.2721   -4.3055    1.8598 C.ar      1 <0>         0.2154
     12 C8          1.2858   -4.7351    3.1859 C.ar      1 <0>        -0.1221
     13 C9          1.3086   -6.0949    3.4374 C.ar      1 <0>        -0.1512
     14 C10         1.3168   -6.9820    2.3672 C.ar      1 <0>         0.2373
     15 N2          1.3037   -6.5390    1.1207 N.ar      1 <0>        -0.4276
     16 C11         1.2762   -5.2495    0.8434 C.ar      1 <0>        -0.0177
     17 N3          1.3397   -8.3568    2.6106 N.am      1 <0>        -0.6525
     18 C12         1.2445   -9.2247    1.5839 C.2       1 <0>         0.5232
     19 O3          1.2318   -8.8147    0.4425 O.2       1 <0>        -0.4816
     20 C13         1.1536  -10.7045    1.8541 C.3       1 <0>        -0.1907
     21 C14         2.3480  -11.5710    1.4497 C.3       1 <0>        -0.1560
     22 C15         1.0475  -11.6379    0.6465 C.3       1 <0>        -0.1492
     23 S2          3.8770    2.3164   -0.0212 S.o2      1 <0>         2.7038
     24 O4          4.8592    1.4584   -0.5854 O.2       1 <0>        -0.9586
     25 O5          3.5817    3.5964   -0.5631 O.2       1 <0>        -0.9680
     26 N4          4.3122    2.5600    1.5580 N.pl3     1 <0>        -1.2496
     27 H1         -0.9726    1.9022    0.0262 H         1 <0>         0.1401
     28 H2          1.1412    3.1654    0.0091 H         1 <0>         0.1454
     29 H3          3.3285   -0.4957   -0.0306 H         1 <0>         0.1568
     30 H4         -0.9357   -0.5597    0.0078 H         1 <0>         0.1476
     31 H5          1.2793   -4.0228    3.9977 H         1 <0>         0.1289
     32 H6          1.3201   -6.4629    4.4527 H         1 <0>         0.1199
     33 H7          1.2614   -4.9251   -0.1866 H         1 <0>         0.1296
     34 H8          1.4242   -8.6872    3.5187 H         1 <0>         0.4074
     35 H9          0.6103  -10.9851    2.7564 H         1 <0>         0.1211
     36 H10         3.1994  -11.0708    0.9883 H         1 <0>         0.0993
     37 H11         2.5907  -12.4220    2.0861 H         1 <0>         0.1013
     38 H12         0.4347  -12.5328    0.7544 H         1 <0>         0.1002
     39 H13         1.0434  -11.1816   -0.3435 H         1 <0>         0.1083
     40 H14         3.7532    2.2185    2.2733 H         1 <0>         0.4188
     41 H15         5.1262    3.0442    1.7676 H         1 <0>         0.4194
@<TRIPOS>BOND
     1    1    6 ar
     2    1    2 ar
     3    1   27 1
     4    2    3 ar
     5    2   28 1
     6    3    4 ar
     7    3   23 1
     8    4    5 ar
     9    4   29 1
    10    5    6 ar
    11    5    7 1
    12    6   30 1
    13    7    8 2
    14    7    9 2
    15    7   10 1
    16   10   11 1
    17   11   16 ar
    18   11   12 ar
    19   12   13 ar
    20   12   31 1
    21   13   14 ar
    22   13   32 1
    23   14   15 ar
    24   14   17 1
    25   15   16 ar
    26   16   33 1
    27   17   18 am
    28   17   34 1
    29   18   19 2
    30   18   20 1
    31   20   22 1
    32   20   21 1
    33   20   35 1
    34   21   22 1
    35   21   36 1
    36   21   37 1
    37   22   38 1
    38   22   39 1
    39   23   24 2
    40   23   25 2
    41   23   26 1
    42   26   40 1
    43   26   41 1
@<TRIPOS>MOLECULE
ZINC20879604
   45    46     0     0     0
SMALL
USER_CHARGES
3-[[2-(2-amino-2-oxo-ethoxy)-3-methoxy-phenyl]methylamino]-4-methoxy-benzoic acid
@<TRIPOS>ATOM
      1 C1         -6.7757    4.9808    2.3178 C.3       1 <0>         0.0222
      2 O1         -5.4285    4.5095    2.3879 O.3       1 <0>        -0.3055
      3 C2         -4.7202    4.4894    1.2272 C.ar      1 <0>         0.1090
      4 C3         -5.3092    4.9141    0.0470 C.ar      1 <0>        -0.1966
      5 C4         -4.5879    4.8927   -1.1322 C.ar      1 <0>        -0.0837
      6 C5         -3.2787    4.4485   -1.1373 C.ar      1 <0>        -0.1244
      7 C6         -2.6851    4.0235    0.0366 C.ar      1 <0>        -0.0722
      8 C7         -3.4044    4.0366    1.2209 C.ar      1 <0>         0.0788
      9 O2         -2.8238    3.6136    2.3756 O.3       1 <0>        -0.2879
     10 C8         -2.1438    4.5971    3.1581 C.3       1 <0>         0.0442
     11 C9         -1.5684    3.9485    4.3907 C.2       1 <0>         0.5217
     12 O3         -1.7252    2.7609    4.5804 O.2       1 <0>        -0.5223
     13 N1         -0.8795    4.6882    5.2822 N.am      1 <0>        -0.8767
     14 C10        -1.2578    3.5401    0.0272 C.3       1 <0>         0.1780
     15 N2         -1.2384    2.0753    0.0192 N.pl3     1 <0>        -0.7472
     16 C11        -0.0169    1.3915    0.0097 C.ar      1 <0>         0.1853
     17 C12         1.1716    2.0984    0.0021 C.ar      1 <0>        -0.1332
     18 C13         2.3889    1.4116   -0.0136 C.ar      1 <0>        -0.1016
     19 C14         2.3994    0.0141   -0.0208 C.ar      1 <0>        -0.0976
     20 C15         1.2116   -0.6845   -0.0132 C.ar      1 <0>        -0.1794
     21 C16         0.0021   -0.0041    0.0020 C.ar      1 <0>         0.0476
     22 O4         -1.1655   -0.6976    0.0090 O.3       1 <0>        -0.3242
     23 C17        -1.0731   -2.1236    0.0005 C.3       1 <0>         0.0326
     24 C18         3.6596    2.1602   -0.0217 C.2       1 <0>         0.4927
     25 O5          3.6490    3.3752   -0.0155 O.co2     1 <0>        -0.6368
     26 O6          4.8323    1.4967   -0.0361 O.co2     1 <0>        -0.7579
     27 H1         -7.2294    4.9446    3.3192 H         1 <0>         0.1013
     28 H2         -7.3519    4.3434    1.6310 H         1 <0>         0.0566
     29 H3         -6.7829    6.0172    1.9492 H         1 <0>         0.0553
     30 H4         -6.3318    5.2615    0.0483 H         1 <0>         0.1320
     31 H5         -5.0481    5.2239   -2.0514 H         1 <0>         0.1297
     32 H6         -2.7183    4.4340   -2.0604 H         1 <0>         0.1335
     33 H7         -1.3313    5.0408    2.5640 H         1 <0>         0.0840
     34 H8         -2.8528    5.3840    3.4549 H         1 <0>         0.0809
     35 H9         -0.4595    4.2148    6.1819 H         1 <0>         0.4272
     36 H10        -0.7373    5.7653    5.1101 H         1 <0>         0.4188
     37 H11        -0.7485    3.9185   -0.8714 H         1 <0>         0.0682
     38 H12        -0.7399    3.9088    0.9249 H         1 <0>         0.0607
     39 H13        -2.1837    1.5127    0.0207 H         1 <0>         0.4200
     40 H14         1.1593    3.1783    0.0077 H         1 <0>         0.1284
     41 H15         3.3388   -0.5185   -0.0326 H         1 <0>         0.1281
     42 H16         1.2220   -1.7645   -0.0194 H         1 <0>         0.1197
     43 H17        -2.0843   -2.5566    0.0075 H         1 <0>         0.0906
     44 H18        -0.5237   -2.4607    0.8919 H         1 <0>         0.0504
     45 H19        -0.5402   -2.4511   -0.9044 H         1 <0>         0.0497
@<TRIPOS>BOND
     1    1    2 1
     2    1   27 1
     3    1   28 1
     4    1   29 1
     5    2    3 1
     6    3    8 ar
     7    3    4 ar
     8    4    5 ar
     9    4   30 1
    10    5    6 ar
    11    5   31 1
    12    6    7 ar
    13    6   32 1
    14    7    8 ar
    15    7   14 1
    16    8    9 1
    17    9   10 1
    18   10   11 1
    19   10   33 1
    20   10   34 1
    21   11   12 2
    22   11   13 am
    23   13   35 1
    24   13   36 1
    25   14   15 1
    26   14   37 1
    27   14   38 1
    28   15   16 1
    29   15   39 1
    30   16   21 ar
    31   16   17 ar
    32   17   18 ar
    33   17   40 1
    34   18   19 ar
    35   18   24 1
    36   19   20 ar
    37   19   41 1
    38   20   21 ar
    39   20   42 1
    40   21   22 1
    41   22   23 1
    42   23   43 1
    43   23   44 1
    44   23   45 1
    45   24   25 2
    46   24   26 1
@<TRIPOS>MOLECULE
ZINC39558310
   40    41     0     0     0
SMALL
USER_CHARGES

@<TRIPOS>ATOM
      1 C1          0.3849    1.3939   -0.2638 C.3       1 <0>         0.0249
      2 O1          0.4284   -0.0344   -0.2667 O.3       1 <0>        -0.3041
      3 C2          0.9028   -0.6400    0.8549 C.ar      1 <0>         0.0990
      4 C3          1.3112    0.1248    1.9347 C.ar      1 <0>        -0.1783
      5 C4          1.7959   -0.4846    3.0800 C.ar      1 <0>        -0.0939
      6 C5          1.8763   -1.8580    3.1571 C.ar      1 <0>        -0.1117
      7 C6          1.4680   -2.6437    2.0756 C.ar      1 <0>        -0.1131
      8 C7          0.9725   -2.0280    0.9196 C.ar      1 <0>         0.1274
      9 O2          0.5679   -2.7813   -0.1346 O.3       1 <0>        -0.3064
     10 C8          1.5536   -3.1045   -1.1174 C.3       1 <0>         0.0509
     11 C9          1.5534   -4.1144    2.1537 C.2       1 <0>         0.5462
     12 O3          1.1973   -4.7950    1.2110 O.2       1 <0>        -0.4823
     13 N1          2.0261   -4.7036    3.2698 N.am      1 <0>        -0.6635
     14 C10         2.0044   -6.0969    3.3878 C.ar      1 <0>         0.1711
     15 C11         3.0086   -6.7512    4.0912 C.ar      1 <0>        -0.2480
     16 C12         2.9883   -8.1275    4.2078 C.ar      1 <0>        -0.0502
     17 C13         1.9701   -8.8582    3.6259 C.ar      1 <0>        -0.2749
     18 C14         0.9630   -8.2103    2.9213 C.ar      1 <0>         0.2998
     19 C15         0.9773   -6.8270    2.8075 C.ar      1 <0>        -0.1750
     20 N2         -0.0654   -8.9497    2.3326 N.2       1 <0>        -1.1048
     21 S1         -0.0848  -10.5995    2.4742 S.o2      1 <0>         2.7154
     22 O4          1.0439  -11.0819    1.7583 O.2       1 <0>        -1.0580
     23 O5         -0.2940  -10.8866    3.8501 O.2       1 <0>        -1.0591
     24 N3         -1.4248  -11.1443    1.6680 N.pl3     1 <0>        -1.2511
     25 H1          1.3912    1.7878   -0.1217 H         1 <0>         0.0547
     26 H2         -0.0126    1.7472   -1.2153 H         1 <0>         0.1011
     27 H3         -0.2572    1.7362    0.5478 H         1 <0>         0.0561
     28 H4          1.2518    1.2019    1.8833 H         1 <0>         0.1353
     29 H5          2.1129    0.1198    3.9171 H         1 <0>         0.1342
     30 H6          2.2552   -2.3274    4.0529 H         1 <0>         0.1339
     31 H7          1.0992   -3.7083   -1.9030 H         1 <0>         0.0945
     32 H8          1.9510   -2.1859   -1.5492 H         1 <0>         0.0374
     33 H9          2.3626   -3.6657   -0.6498 H         1 <0>         0.0492
     34 H10         2.3814   -4.1613    3.9913 H         1 <0>         0.4007
     35 H11         3.8060   -6.1830    4.5468 H         1 <0>         0.1037
     36 H12         3.7701   -8.6334    4.7547 H         1 <0>         0.1059
     37 H13         1.9573   -9.9342    3.7186 H         1 <0>         0.0970
     38 H14         0.1931   -6.3205    2.2645 H         1 <0>         0.1261
     39 H15        -2.0173  -10.5134    1.2302 H         1 <0>         0.4090
     40 H16        -1.6172  -12.0945    1.6337 H         1 <0>         0.4008
@<TRIPOS>BOND
     1    1    2 1
     2    1   25 1
     3    1   26 1
     4    1   27 1
     5    2    3 1
     6    3    8 ar
     7    3    4 ar
     8    4    5 ar
     9    4   28 1
    10    5    6 ar
    11    5   29 1
    12    6    7 ar
    13    6   30 1
    14    7    8 ar
    15    7   11 1
    16    8    9 1
    17    9   10 1
    18   10   31 1
    19   10   32 1
    20   10   33 1
    21   11   12 2
    22   11   13 am
    23   13   14 1
    24   13   34 1
    25   14   19 ar
    26   14   15 ar
    27   15   16 ar
    28   15   35 1
    29   16   17 ar
    30   16   36 1
    31   17   18 ar
    32   17   37 1
    33   18   19 ar
    34   18   20 1
    35   19   38 1
    36   20   21 1
    37   21   22 2
    38   21   23 2
    39   21   24 1
    40   24   39 1
    41   24   40 1
@<TRIPOS>MOLECULE
ZINC51081780
   45    47     0     0     0
SMALL
USER_CHARGES

@<TRIPOS>ATOM
      1 C1          1.0247   -0.4339    0.1527 C.ar      1 <0>        -0.0907
      2 C2          2.1983    0.2505   -0.0860 C.ar      1 <0>        -0.1183
      3 C3          2.4448    1.4621    0.5672 C.ar      1 <0>        -0.0392
      4 C4          1.4980    1.9732    1.4598 C.ar      1 <0>        -0.1140
      5 C5          0.3248    1.2766    1.6902 C.ar      1 <0>         0.1172
      6 C6          0.0898    0.0739    1.0362 C.ar      1 <0>        -0.2124
      7 O1         -0.5985    1.7697    2.5572 O.3       1 <0>        -0.2900
      8 C7         -1.7866    0.9987    2.7474 C.3       1 <0>         0.0407
      9 C8         -2.6856    1.6968    3.7352 C.2       1 <0>         0.5185
     10 O2         -2.3426    2.7506    4.2277 O.2       1 <0>        -0.5137
     11 N1         -3.8707    1.1499    4.0711 N.am      1 <0>        -0.8534
     12 C9          3.6966    2.1965    0.3161 C.2       1 <0>         0.3831
     13 O3          4.8781    1.5464    0.3493 O.3       1 <0>        -0.5898
     14 C10         3.6605    3.5579    0.0453 C.2       1 <0>        -0.4130
     15 C11         2.4027    4.2217   -0.1213 C.1       1 <0>         0.2939
     16 N2          1.4048    4.7483   -0.2535 N.1       1 <0>        -0.5244
     17 C12         4.9109    4.3160   -0.0702 C.2       1 <0>         0.5899
     18 O4          5.9800    3.7518    0.0714 O.2       1 <0>        -0.5216
     19 N3          4.8759    5.6374   -0.3331 N.am      1 <0>        -0.6905
     20 C13         6.0675    6.3396   -0.5518 C.ar      1 <0>         0.1862
     21 C14         6.1796    7.6621   -0.1435 C.ar      1 <0>        -0.1569
     22 C15         7.3542    8.3556   -0.3607 C.ar      1 <0>        -0.0916
     23 C16         8.4253    7.7339   -0.9856 C.ar      1 <0>         0.0114
     24 C17         8.3172    6.4094   -1.3929 C.ar      1 <0>         0.0719
     25 C18         7.1392    5.7125   -1.1715 C.ar      1 <0>        -0.1204
     26 O5          9.3601    5.7802   -2.0006 O.3       1 <0>        -0.3039
     27 C19        10.3925    6.6154   -2.5356 C.3       1 <0>         0.0210
     28 C20        10.7508    7.6716   -1.4814 C.3       1 <0>         0.0217
     29 O6          9.5741    8.4352   -1.1944 O.3       1 <0>        -0.3121
     30 H1          0.8333   -1.3674   -0.3556 H         1 <0>         0.1239
     31 H2          2.9263   -0.1493   -0.7764 H         1 <0>         0.1295
     32 H3          1.6818    2.9082    1.9681 H         1 <0>         0.1331
     33 H4         -0.8272   -0.4668    1.2182 H         1 <0>         0.1219
     34 H5         -2.3065    0.8918    1.7954 H         1 <0>         0.0918
     35 H6         -1.5226    0.0128    3.1300 H         1 <0>         0.0921
     36 H7         -4.1450    0.3070    3.6772 H         1 <0>         0.4020
     37 H8         -4.4493    1.5992    4.7069 H         1 <0>         0.4069
     38 H9          4.0252    6.1021   -0.3709 H         1 <0>         0.4026
     39 H10         5.3477    8.1488    0.3437 H         1 <0>         0.1314
     40 H11         7.4388    9.3845   -0.0436 H         1 <0>         0.1322
     41 H12         7.0541    4.6826   -1.4856 H         1 <0>         0.1516
     42 H13        11.2711    6.0124   -2.7652 H         1 <0>         0.1174
     43 H14        10.0360    7.1061   -3.4413 H         1 <0>         0.0738
     44 H15        11.1012    7.1807   -0.5735 H         1 <0>         0.0740
     45 H16        11.5297    8.3283   -1.8689 H         1 <0>         0.1160
@<TRIPOS>BOND
     1    1    6 ar
     2    1    2 ar
     3    1   30 1
     4    2    3 ar
     5    2   31 1
     6    3    4 ar
     7    3   12 1
     8    4    5 ar
     9    4   32 1
    10    5    6 ar
    11    5    7 1
    12    6   33 1
    13    7    8 1
    14    8    9 1
    15    8   34 1
    16    8   35 1
    17    9   10 2
    18    9   11 am
    19   11   36 1
    20   11   37 1
    21   12   13 1
    22   12   14 2
    23   14   15 1
    24   14   17 1
    25   15   16 3
    26   17   18 2
    27   17   19 am
    28   19   20 1
    29   19   38 1
    30   20   25 ar
    31   20   21 ar
    32   21   22 ar
    33   21   39 1
    34   22   23 ar
    35   22   40 1
    36   23   29 1
    37   23   24 ar
    38   24   25 ar
    39   24   26 1
    40   25   41 1
    41   26   27 1
    42   27   28 1
    43   27   42 1
    44   27   43 1
    45   28   29 1
    46   28   44 1
    47   28   45 1
@<TRIPOS>MOLECULE
ZINC63181192
   47    48     0     0     0
SMALL
USER_CHARGES

@<TRIPOS>ATOM
      1 C1         -0.3397    1.5094    1.2986 C.3       1 <0>        -0.1520
      2 C2         -0.3261   -0.0205    1.3022 C.3       1 <0>        -0.1098
      3 C3         -1.5723   -0.5433    0.5850 C.3       1 <0>        -0.1399
      4 C4         -1.5590   -2.0502    0.5885 C.2       1 <0>         0.5036
      5 O1         -0.6428   -2.6473    1.1131 O.2       1 <0>        -0.5207
      6 N1         -2.5651   -2.7344    0.0088 N.am      1 <0>        -0.6645
      7 C5         -2.4970   -4.1284   -0.0905 C.ar      1 <0>         0.1733
      8 C6         -1.2625   -4.7661   -0.0911 C.ar      1 <0>        -0.2252
      9 C7         -1.1942   -6.1423   -0.1896 C.ar      1 <0>        -0.0564
     10 C8         -2.3525   -6.8893   -0.2874 C.ar      1 <0>        -0.2732
     11 C9         -3.5901   -6.2578   -0.2870 C.ar      1 <0>         0.2973
     12 C10        -3.6621   -4.8756   -0.1829 C.ar      1 <0>        -0.1839
     13 C11        -5.0029   -4.1876   -0.1759 C.3       1 <0>        -0.0754
     14 N2         -4.7606   -7.0135   -0.3859 N.2       1 <0>        -1.0887
     15 S1         -4.6738   -8.6630   -0.5038 S.o2      1 <0>         2.6302
     16 O2         -4.0567   -8.9491   -1.7515 O.2       1 <0>        -1.0376
     17 O3         -4.1489   -9.1313    0.7309 O.2       1 <0>        -1.0333
     18 C12        -6.3263   -9.2654   -0.6094 C.2       1 <0>        -0.6879
     19 C13        -7.1423   -9.6239    0.4681 C.2       1 <0>        -0.0443
     20 C14        -8.3475  -10.0391   -0.0571 C.2       1 <0>        -0.0814
     21 N3         -8.2614   -9.9335   -1.4268 N.pl3     1 <0>        -0.4102
     22 C15        -7.0336   -9.4580   -1.7484 C.2       1 <0>         0.1314
     23 C16        -9.3225  -10.2726   -2.3783 C.3       1 <0>         0.0653
     24 C17        -9.5095  -10.5086    0.7049 C.2       1 <0>         0.6024
     25 O4        -10.4882  -10.9352    0.1209 O.2       1 <0>        -0.5600
     26 N4         -9.4934  -10.4676    2.0520 N.am      1 <0>        -0.8433
     27 H1          0.5482    1.8819    1.8096 H         1 <0>         0.0556
     28 H2         -0.3452    1.8703    0.2701 H         1 <0>         0.0533
     29 H3         -1.2317    1.8661    1.8136 H         1 <0>         0.0534
     30 H4          0.5659   -0.3771    0.7873 H         1 <0>         0.0694
     31 H5         -0.3206   -0.3814    2.3307 H         1 <0>         0.0696
     32 H6         -2.4644   -0.1866    1.1000 H         1 <0>         0.0914
     33 H7         -1.5779   -0.1824   -0.4435 H         1 <0>         0.0923
     34 H8         -3.3363   -2.2604   -0.3396 H         1 <0>         0.4044
     35 H9         -0.3553   -4.1852   -0.0147 H         1 <0>         0.1252
     36 H10        -0.2333   -6.6355   -0.1904 H         1 <0>         0.1037
     37 H11        -2.2957   -7.9651   -0.3647 H         1 <0>         0.0969
     38 H12        -5.2930   -3.9468   -1.1986 H         1 <0>         0.0450
     39 H13        -5.7480   -4.8484    0.2672 H         1 <0>         0.0763
     40 H14        -4.9374   -3.2701    0.4089 H         1 <0>         0.0314
     41 H15        -6.8780   -9.5834    1.5145 H         1 <0>         0.1544
     42 H16        -6.6765   -9.2666   -2.7495 H         1 <0>         0.1847
     43 H17        -9.9930   -9.4210   -2.4936 H         1 <0>         0.0773
     44 H18        -8.8798  -10.5198   -3.3432 H         1 <0>         0.0856
     45 H19        -9.8841  -11.1294   -2.0060 H         1 <0>         0.1003
     46 H20        -8.7447  -10.0613    2.5159 H         1 <0>         0.4073
     47 H21       -10.2305  -10.8445    2.5575 H         1 <0>         0.4069
@<TRIPOS>BOND
     1    1    2 1
     2    1   27 1
     3    1   28 1
     4    1   29 1
     5    2    3 1
     6    2   30 1
     7    2   31 1
     8    3    4 1
     9    3   32 1
    10    3   33 1
    11    4    5 2
    12    4    6 am
    13    6    7 1
    14    6   34 1
    15    7   12 ar
    16    7    8 ar
    17    8    9 ar
    18    8   35 1
    19    9   10 ar
    20    9   36 1
    21   10   11 ar
    22   10   37 1
    23   11   12 ar
    24   11   14 1
    25   12   13 1
    26   13   38 1
    27   13   39 1
    28   13   40 1
    29   14   15 1
    30   15   16 2
    31   15   17 2
    32   15   18 1
    33   18   22 2
    34   18   19 1
    35   19   20 2
    36   19   41 1
    37   20   21 1
    38   20   24 1
    39   21   22 1
    40   21   23 1
    41   22   42 1
    42   23   43 1
    43   23   44 1
    44   23   45 1
    45   24   25 2
    46   24   26 am
    47   26   46 1
    48   26   47 1
@<TRIPOS>MOLECULE
ZINC66002640
   39    40     0     0     0
SMALL
USER_CHARGES

@<TRIPOS>ATOM
      1 C1         -0.6167    1.5068   -2.1653 C.3       1 <0>        -0.1676
      2 C2         -0.6040   -0.0002   -2.1692 C.2       1 <0>         0.4997
      3 O1         -1.1373   -0.6088   -3.0727 O.2       1 <0>        -0.5115
      4 N1          0.0001   -0.6716   -1.1688 N.am      1 <0>        -0.6722
      5 C3         -0.0709   -2.0695   -1.1208 C.ar      1 <0>         0.1024
      6 C4         -0.1519   -2.7190    0.1056 C.ar      1 <0>        -0.1065
      7 C5         -0.2225   -4.0974    0.1596 C.ar      1 <0>        -0.1629
      8 C6         -0.2126   -4.8406   -1.0070 C.ar      1 <0>         0.1421
      9 C7         -0.1314   -4.1958   -2.2438 C.ar      1 <0>        -0.0800
     10 C8         -0.0660   -2.8035   -2.2957 C.ar      1 <0>        -0.0444
     11 C9         -0.1201   -4.9864   -3.4937 C.2       1 <0>         0.5210
     12 O2         -0.0414   -4.3597   -4.6896 O.3       1 <0>        -0.7013
     13 N2         -0.1857   -6.2842   -3.4428 N.2       1 <0>        -1.0446
     14 S1         -0.1730   -7.1695   -4.8422 S.o2      1 <0>         2.6457
     15 O3         -1.3782   -6.8609   -5.5289 O.2       1 <0>        -1.0002
     16 O4          1.1075   -6.9828   -5.4292 O.2       1 <0>        -1.0003
     17 C10        -0.2746   -8.8681   -4.3851 C.ar      1 <0>        -0.6010
     18 C11         0.8831   -9.5893   -4.1529 C.ar      1 <0>        -0.0289
     19 C12         0.8105  -10.9196   -3.7946 C.ar      1 <0>        -0.0825
     20 C13        -0.4343  -11.5377   -3.6666 C.ar      1 <0>        -0.1078
     21 C14        -1.5983  -10.8044   -3.9023 C.ar      1 <0>        -0.1115
     22 C15        -1.5120   -9.4733   -4.2544 C.ar      1 <0>        -0.0300
     23 C16        -0.5196  -12.9631   -3.2835 C.2       1 <0>         0.5657
     24 O5          0.4958  -13.5993   -3.0793 O.2       1 <0>        -0.5389
     25 N3         -1.7231  -13.5571   -3.1608 N.am      1 <0>        -0.8505
     26 F1         -0.2810   -6.1887   -0.9504 F         1 <0>        -0.1074
     27 H1         -1.5021    1.8612   -1.6375 H         1 <0>         0.0943
     28 H2          0.2776    1.8764   -1.6636 H         1 <0>         0.0799
     29 H3         -0.6349    1.8726   -3.1918 H         1 <0>         0.0955
     30 H4          0.4839   -0.1867   -0.4821 H         1 <0>         0.4082
     31 H5         -0.1593   -2.1437    1.0195 H         1 <0>         0.1301
     32 H6         -0.2853   -4.5963    1.1154 H         1 <0>         0.1370
     33 H7         -0.0072   -2.2992   -3.2489 H         1 <0>         0.1585
     34 H8          1.8457   -9.1099   -4.2526 H         1 <0>         0.1461
     35 H9          1.7149  -11.4815   -3.6140 H         1 <0>         0.1414
     36 H10        -2.5646  -11.2769   -3.8050 H         1 <0>         0.1306
     37 H11        -2.4120   -8.9036   -4.4328 H         1 <0>         0.1451
     38 H12        -2.5334  -13.0494   -3.3238 H         1 <0>         0.4026
     39 H13        -1.7791  -14.4923   -2.9094 H         1 <0>         0.4042
@<TRIPOS>BOND
     1    1    2 1
     2    1   27 1
     3    1   28 1
     4    1   29 1
     5    2    3 2
     6    2    4 am
     7    4    5 1
     8    4   30 1
     9    5   10 ar
    10    5    6 ar
    11    6    7 ar
    12    6   31 1
    13    7    8 ar
    14    7   32 1
    15    8    9 ar
    16    8   26 1
    17    9   10 ar
    18    9   11 1
    19   10   33 1
    20   11   12 1
    21   11   13 2
    22   13   14 1
    23   14   15 2
    24   14   16 2
    25   14   17 1
    26   17   22 ar
    27   17   18 ar
    28   18   19 ar
    29   18   34 1
    30   19   20 ar
    31   19   35 1
    32   20   21 ar
    33   20   23 1
    34   21   22 ar
    35   21   36 1
    36   22   37 1
    37   23   24 2
    38   23   25 am
    39   25   38 1
    40   25   39 1
@<TRIPOS>MOLECULE
ZINC09253510
   38    40     0     0     0
SMALL
USER_CHARGES
5-hydroxy-2-[2-[4-oxo-5-(2-thienylmethylene)-2-thioxo-thiazolidin-3-yl]acetyl]amino-benzoic acid
@<TRIPOS>ATOM
      1 C1          2.1062    0.8879    0.0364 C.2       1 <0>        -0.1828
      2 C2          1.2102    1.8463   -0.3680 C.2       1 <0>        -0.0901
      3 C3         -0.0470    1.8251    0.2263 C.2       1 <0>        -0.2130
      4 S1          0.0977    0.4384    1.3393 S.3       1 <0>         0.2227
      5 C4          1.7309   -0.0170    0.9780 C.2       1 <0>        -0.2028
      6 C5         -1.1534    2.6768    0.0022 C.2       1 <0>         0.1434
      7 C6         -2.4110    2.1554   -0.0726 C.2       1 <0>        -0.2455
      8 C7         -2.8275    0.7900   -0.1102 C.2       1 <0>         0.5407
      9 O1         -2.0136   -0.1153   -0.0745 O.2       1 <0>        -0.4490
     10 N1         -4.1231    0.5381   -0.1808 N.am      1 <0>        -0.5043
     11 C8         -5.0256    1.5430   -0.2268 C.2       1 <0>         0.2837
     12 S2         -6.7322    1.4486   -0.3248 S.2       1 <0>        -0.3073
     13 S3         -3.9869    2.9948   -0.1584 S.3       1 <0>         0.0644
     14 C9         -4.5873   -0.8510   -0.2158 C.3       1 <0>         0.0671
     15 C10        -4.6643   -1.3190   -1.6462 C.2       1 <0>         0.5062
     16 O2         -4.3612   -0.5664   -2.5477 O.2       1 <0>        -0.5281
     17 N2         -5.0699   -2.5740   -1.9237 N.am      1 <0>        -0.6318
     18 C11        -5.0319   -3.0449   -3.2354 C.ar      1 <0>         0.1706
     19 C12        -4.1221   -2.5142   -4.1398 C.ar      1 <0>        -0.1318
     20 C13        -4.0807   -2.9832   -5.4368 C.ar      1 <0>        -0.1246
     21 C14        -4.9548   -3.9814   -5.8513 C.ar      1 <0>         0.0629
     22 C15        -5.8703   -4.5168   -4.9647 C.ar      1 <0>        -0.0790
     23 C16        -5.9167   -4.0524   -3.6474 C.ar      1 <0>        -0.1298
     24 C17        -6.8904   -4.6179   -2.6963 C.2       1 <0>         0.4977
     25 O3         -7.0021   -4.1396   -1.5849 O.co2     1 <0>        -0.6309
     26 O4         -4.9094   -4.4325   -7.1333 O.3       1 <0>        -0.4998
     27 H1          3.0981    0.8534   -0.3894 H         1 <0>         0.1357
     28 H2          1.4698    2.5829   -1.1139 H         1 <0>         0.1428
     29 H3          2.3103   -0.8251    1.3996 H         1 <0>         0.1872
     30 H4         -1.0023    3.7404   -0.1096 H         1 <0>         0.1675
     31 H5         -3.8897   -1.4812    0.3357 H         1 <0>         0.1377
     32 H6         -5.5748   -0.9157    0.2413 H         1 <0>         0.1456
     33 H7         -5.3884   -3.1495   -1.2108 H         1 <0>         0.4289
     34 H8         -3.4427   -1.7353   -3.8265 H         1 <0>         0.1404
     35 H9         -3.3681   -2.5696   -6.1350 H         1 <0>         0.1237
     36 H10        -6.5486   -5.2920   -5.2894 H         1 <0>         0.1409
     37 H11        -5.4851   -3.9485   -7.7411 H         1 <0>         0.3808
     38 O5         -7.6566   -5.6653   -3.0593 O.co2     1 <0>        -0.7400
@<TRIPOS>BOND
     1    1    5 2
     2    1    2 1
     3    1   27 1
     4    2    3 2
     5    2   28 1
     6    3    4 1
     7    3    6 1
     8    4    5 1
     9    5   29 1
    10    6    7 2
    11    6   30 1
    12    7   13 1
    13    7    8 1
    14    8    9 2
    15    8   10 am
    16   10   11 1
    17   10   14 1
    18   11   12 2
    19   11   13 1
    20   14   15 1
    21   14   31 1
    22   14   32 1
    23   15   16 2
    24   15   17 am
    25   17   18 1
    26   17   33 1
    27   18   23 ar
    28   18   19 ar
    29   19   20 ar
    30   19   34 1
    31   20   21 ar
    32   20   35 1
    33   21   22 ar
    34   21   26 1
    35   22   23 ar
    36   22   36 1
    37   23   24 1
    38   24   25 2
    39   24   38 1
    40   26   37 1
@<TRIPOS>MOLECULE
ZINC02459056
   45    47     0     0     0
SMALL
USER_CHARGES
(4Z,5S)-1-(2-hydroxyethyl)-5-(4-hydroxy-3-methoxy-phenyl)-4-[hydroxy(phenyl)methylene]pyrrolidine-2,3-dione
@<TRIPOS>ATOM
      1 C1          3.4682   -0.8711   -4.0066 C.3       1 <0>         0.0237
      2 O1          2.5667   -1.1905   -2.9448 O.3       1 <0>        -0.3119
      3 C2          2.5868   -0.3798   -1.8530 C.ar      1 <0>         0.0839
      4 C3          3.5246    0.6361   -1.7596 C.ar      1 <0>        -0.1403
      5 C4          3.5474    1.4556   -0.6466 C.ar      1 <0>        -0.0744
      6 C5          2.6322    1.2679    0.3726 C.ar      1 <0>        -0.1025
      7 C6          1.6904    0.2599    0.2831 C.ar      1 <0>        -0.1775
      8 C7          1.6621   -0.5649   -0.8298 C.ar      1 <0>         0.1156
      9 O2          0.7361   -1.5570   -0.9194 O.3       1 <0>        -0.5040
     10 C8          4.5723    2.5556   -0.5436 C.3       1 <0>         0.2617
     11 H1          4.3005    3.2085    0.2989 H         1 <0>         0.0649
     12 C9          5.9524    1.9630   -0.3776 C.2       1 <0>        -0.4986
     13 C10         6.3890    1.1542    0.6512 C.2       1 <0>         0.3812
     14 C11         5.5139    0.8974    1.8086 C.ar      1 <0>        -0.0599
     15 C12         4.9645    1.9654    2.5250 C.ar      1 <0>        -0.1014
     16 C13         4.1430    1.7169    3.6041 C.ar      1 <0>        -0.1286
     17 C14         3.8699    0.4146    3.9852 C.ar      1 <0>        -0.1278
     18 C15         4.4138   -0.6478    3.2841 C.ar      1 <0>        -0.1238
     19 C16         5.2332   -0.4156    2.1998 C.ar      1 <0>        -0.0871
     20 O3          7.6180    0.5981    0.5977 O.2       1 <0>        -0.6141
     21 C17         6.7011    2.4017   -1.4820 C.2       1 <0>         0.3743
     22 O4          7.8671    2.1331   -1.7069 O.3       1 <0>        -0.4800
     23 C18         5.8216    3.2520   -2.3297 C.2       1 <0>         0.4802
     24 O5          6.1611    3.7903   -3.3635 O.2       1 <0>        -0.5205
     25 N1          4.5968    3.3362   -1.7839 N.am      1 <0>        -0.5977
     26 C19         3.4681    4.0875   -2.3387 C.3       1 <0>         0.1308
     27 C20         3.4867    5.5154   -1.7895 C.3       1 <0>         0.0690
     28 O6          4.6563    6.1904   -2.2568 O.3       1 <0>        -0.5814
     29 H2          3.3489   -1.6011   -4.8208 H         1 <0>         0.0973
     30 H3          4.5020   -0.9048   -3.6324 H         1 <0>         0.0574
     31 H4          3.2474    0.1383   -4.3838 H         1 <0>         0.0522
     32 H5          4.2406    0.7847   -2.5544 H         1 <0>         0.1277
     33 H6          2.6529    1.9104    1.2404 H         1 <0>         0.1226
     34 H7          0.9767    0.1153    1.0808 H         1 <0>         0.1267
     35 H8          0.0057   -1.7023   -0.1099 H         1 <0>         0.4209
     36 H9          5.1803    2.9822    2.2316 H         1 <0>         0.1217
     37 H10         3.7150    2.5406    4.1561 H         1 <0>         0.1163
     38 H11         3.2294    0.2263    4.8341 H         1 <0>         0.1130
     39 H12         4.1961   -1.6612    3.5874 H         1 <0>         0.1149
     40 H13         5.6574   -1.2455    1.6542 H         1 <0>         0.1184
     41 H14         2.5256    3.5973   -2.0535 H         1 <0>         0.0899
     42 H15         3.5497    4.1153   -3.4353 H         1 <0>         0.0829
     43 H16         2.5909    6.0526   -2.1346 H         1 <0>         0.0447
     44 H17         3.4953    5.4854   -0.6900 H         1 <0>         0.0428
     45 H18         4.8431    7.2340   -1.9639 H         1 <0>         0.3969
@<TRIPOS>BOND
     1    1    2 1
     2    1   29 1
     3    1   30 1
     4    1   31 1
     5    2    3 1
     6    3    8 ar
     7    3    4 ar
     8    4    5 ar
     9    4   32 1
    10    5    6 ar
    11    5   10 1
    12    6    7 ar
    13    6   33 1
    14    7    8 ar
    15    7   34 1
    16    8    9 1
    17    9   35 1
    18   10   12 1
    19   10   25 1
    20   10   11 1
    21   12   21 2
    22   12   13 1
    23   13   20 2
    24   13   14 1
    25   14   19 ar
    26   14   15 ar
    27   15   16 ar
    28   15   36 1
    29   16   17 ar
    30   16   37 1
    31   17   18 ar
    32   17   38 1
    33   18   19 ar
    34   18   39 1
    35   19   40 1
    36   21   23 1
    37   21   22 1
    38   23   25 am
    39   23   24 2
    40   25   26 1
    41   26   27 1
    42   26   41 1
    43   26   42 1
    44   27   28 1
    45   27   43 1
    46   27   44 1
    47   28   45 1
@<TRIPOS>MOLECULE
ZINC41705117
   38    39     0     0     0
SMALL
USER_CHARGES

@<TRIPOS>ATOM
      1 C1         -0.0184    1.5028    0.0103 C.3       1 <0>        -0.1659
      2 C2          0.0021   -0.0041    0.0020 C.ar      1 <0>         0.0560
      3 C3          0.0058   -0.6883   -1.1989 C.ar      1 <0>        -0.1851
      4 C4          0.0250   -2.0725   -1.2062 C.ar      1 <0>         0.1400
      5 C5          0.0405   -2.7700   -0.0100 C.ar      1 <0>        -0.1880
      6 C6          0.0368   -2.0839    1.1893 C.ar      1 <0>         0.0027
      7 C7          0.0229   -0.7013    1.1953 C.ar      1 <0>        -0.6393
      8 S1          0.0249    0.1725    2.7255 S.o2      1 <0>         2.6117
      9 O1         -1.0150    1.1374    2.6435 O.2       1 <0>        -1.0164
     10 O2          0.0752   -0.8079    3.7529 O.2       1 <0>        -1.0219
     11 N1          1.4478    1.0157    2.8059 N.2       1 <0>        -1.0732
     12 C8          1.7276    1.8086    3.9211 C.ar      1 <0>         0.3533
     13 C9          0.8152    1.8859    4.9665 C.ar      1 <0>        -0.2970
     14 C10         1.0921    2.6700    6.0693 C.ar      1 <0>         0.0519
     15 C11         2.2767    3.3790    6.1366 C.ar      1 <0>        -0.7896
     16 C12         3.1918    3.3053    5.0960 C.ar      1 <0>         0.2478
     17 C13         2.9199    2.5158    3.9895 C.ar      1 <0>        -0.2821
     18 O3          4.3561    4.0030    5.1637 O.3       1 <0>        -0.3178
     19 C14         5.2513    3.8802    4.0567 C.3       1 <0>         0.0310
     20 S2          2.6250    4.3783    7.5453 S.o2      1 <0>         2.7138
     21 O4          3.0367    5.6459    7.0523 O.2       1 <0>        -0.9729
     22 O5          1.5257    4.2265    8.4328 O.2       1 <0>        -0.9872
     23 N2          3.9400    3.7154    8.3028 N.pl3     1 <0>        -1.2499
     24 F1          0.0282   -2.7424   -2.3795 F         1 <0>        -0.1387
     25 H1          1.0042    1.8801    0.0026 H         1 <0>         0.0948
     26 H2         -0.5455    1.8639   -0.8728 H         1 <0>         0.0729
     27 H3         -0.5286    1.8543    0.9071 H         1 <0>         0.1131
     28 H4         -0.0067   -0.1433   -2.1312 H         1 <0>         0.1394
     29 H5          0.0552   -3.8499   -0.0145 H         1 <0>         0.1395
     30 H6          0.0485   -2.6276    2.1224 H         1 <0>         0.1493
     31 H7         -0.1111    1.3329    4.9164 H         1 <0>         0.1086
     32 H8          0.3816    2.7295    6.8804 H         1 <0>         0.1336
     33 H9          3.6328    2.4540    3.1806 H         1 <0>         0.1287
     34 H10         5.5419    2.8364    3.9385 H         1 <0>         0.0572
     35 H11         4.7560    4.2246    3.1489 H         1 <0>         0.0584
     36 H12         6.1390    4.4862    4.2384 H         1 <0>         0.0948
     37 H13         4.5516    4.2826    8.7978 H         1 <0>         0.4121
     38 H14         4.0985    2.7598    8.2516 H         1 <0>         0.4142
@<TRIPOS>BOND
     1    1    2 1
     2    1   25 1
     3    1   26 1
     4    1   27 1
     5    2    7 ar
     6    2    3 ar
     7    3    4 ar
     8    3   28 1
     9    4    5 ar
    10    4   24 1
    11    5    6 ar
    12    5   29 1
    13    6    7 ar
    14    6   30 1
    15    7    8 1
    16    8    9 2
    17    8   10 2
    18    8   11 1
    19   11   12 1
    20   12   17 ar
    21   12   13 ar
    22   13   14 ar
    23   13   31 1
    24   14   15 ar
    25   14   32 1
    26   15   16 ar
    27   15   20 1
    28   16   17 ar
    29   16   18 1
    30   17   33 1
    31   18   19 1
    32   19   34 1
    33   19   35 1
    34   19   36 1
    35   20   21 2
    36   20   22 2
    37   20   23 1
    38   23   37 1
    39   23   38 1
@<TRIPOS>MOLECULE
ZINC57785467
   39    40     0     0     0
SMALL
USER_CHARGES

@<TRIPOS>ATOM
      1 C1          0.5669    1.6134    0.8524 C.3       1 <0>        -0.1088
      2 C2          0.5378    0.1376    0.5488 C.ar      1 <0>        -0.0008
      3 C3          0.4590   -0.2982   -0.7576 C.ar      1 <0>        -0.1540
      4 C4          0.4322   -1.6528   -1.0382 C.ar      1 <0>        -0.0280
      5 C5          0.4842   -2.5801   -0.0120 C.ar      1 <0>        -0.6916
      6 C6          0.5627   -2.1591    1.2988 C.ar      1 <0>         0.0131
      7 C7          0.5964   -0.7927    1.5894 C.ar      1 <0>        -0.1431
      8 C8          0.6875   -0.3345    2.9889 C.2       1 <0>         0.5252
      9 O1          1.4429    0.5806    3.2848 O.co2     1 <0>        -0.6782
     10 O2          0.0075   -0.8698    3.8530 O.co2     1 <0>        -0.6790
     11 S1          0.4494   -4.3026   -0.3813 S.o2      1 <0>         2.6903
     12 O3         -0.0404   -4.9573    0.7809 O.2       1 <0>        -0.9473
     13 O4         -0.1767   -4.4333   -1.6503 O.2       1 <0>        -0.9553
     14 N1          2.0190   -4.7936   -0.5751 N.pl3     1 <0>        -1.0521
     15 C9          2.9321   -4.6498    0.4759 C.ar      1 <0>         0.1578
     16 C10         2.5116   -4.8165    1.7888 C.ar      1 <0>        -0.1380
     17 C11         3.4124   -4.6747    2.8256 C.ar      1 <0>        -0.0750
     18 C12         4.7390   -4.3654    2.5561 C.ar      1 <0>         0.1422
     19 C13         5.1605   -4.1991    1.2438 C.ar      1 <0>        -0.1145
     20 C14         4.2609   -4.3460    0.2055 C.ar      1 <0>        -0.0379
     21 Cl1         4.7887   -4.1439   -1.4359 Cl        1 <0>        -0.0612
     22 N2          5.6525   -4.2208    3.6090 N.am      1 <0>        -0.6710
     23 C15         5.5328   -4.9825    4.7144 C.2       1 <0>         0.5105
     24 O5          4.6919   -5.8554    4.7614 O.2       1 <0>        -0.5235
     25 C16         6.4439   -4.7498    5.8921 C.3       1 <0>        -0.1686
     26 H1          1.6008    1.9431    0.9542 H         1 <0>         0.0805
     27 H2          0.0892    2.1609    0.0399 H         1 <0>         0.0538
     28 H3          0.0316    1.8036    1.7826 H         1 <0>         0.0786
     29 H4          0.4177    0.4198   -1.5634 H         1 <0>         0.1263
     30 H5          0.3700   -1.9882   -2.0629 H         1 <0>         0.1316
     31 H6          0.6028   -2.8838    2.0986 H         1 <0>         0.1369
     32 H7          2.3056   -5.1808   -1.4170 H         1 <0>         0.4257
     33 H8          1.4798   -5.0567    1.9990 H         1 <0>         0.1744
     34 H9          3.0849   -4.8040    3.8466 H         1 <0>         0.1493
     35 H10         6.1923   -3.9582    1.0344 H         1 <0>         0.1409
     36 H11         6.3709   -3.5724    3.5423 H         1 <0>         0.4132
     37 H12         7.1276   -3.9315    5.6665 H         1 <0>         0.0787
     38 H13         5.8475   -4.4941    6.7679 H         1 <0>         0.1014
     39 H14         7.0155   -5.6557    6.0938 H         1 <0>         0.0971
@<TRIPOS>BOND
     1    1    2 1
     2    1   26 1
     3    1   27 1
     4    1   28 1
     5    2    7 ar
     6    2    3 ar
     7    3    4 ar
     8    3   29 1
     9    4    5 ar
    10    4   30 1
    11    5    6 ar
    12    5   11 1
    13    6    7 ar
    14    6   31 1
    15    7    8 1
    16    8    9 2
    17    8   10 1
    18   11   12 2
    19   11   13 2
    20   11   14 1
    21   14   15 1
    22   14   32 1
    23   15   20 ar
    24   15   16 ar
    25   16   17 ar
    26   16   33 1
    27   17   18 ar
    28   17   34 1
    29   18   19 ar
    30   18   22 1
    31   19   20 ar
    32   19   35 1
    33   20   21 1
    34   22   23 am
    35   22   36 1
    36   23   24 2
    37   23   25 1
    38   25   37 1
    39   25   38 1
    40   25   39 1
@<TRIPOS>MOLECULE
ZINC65867275
   46    47     0     0     0
SMALL
USER_CHARGES

@<TRIPOS>ATOM
      1 C1         -1.4377    1.4332    0.1796 C.3       1 <0>        -0.1423
      2 C2         -1.2267   -0.0818    0.1470 C.3       1 <0>        -0.5977
      3 S1         -2.8308   -0.9187    0.2780 S.o2      1 <0>         2.5169
      4 O1         -3.3891   -0.7077    1.5676 O.2       1 <0>        -1.0291
      5 O2         -3.6020   -0.6846   -0.8924 O.2       1 <0>        -1.0295
      6 N1         -2.4726   -2.5348    0.2317 N.2       1 <0>        -1.0405
      7 C3         -3.4921   -3.4745    0.3111 C.ar      1 <0>         0.3322
      8 C4         -4.8144   -3.0626    0.4236 C.ar      1 <0>        -0.2609
      9 C5         -5.8254   -3.9981    0.5018 C.ar      1 <0>        -0.0459
     10 C6         -5.5325   -5.3525    0.4690 C.ar      1 <0>        -0.2400
     11 C7         -4.2278   -5.7800    0.3579 C.ar      1 <0>        -0.0415
     12 C8         -3.1928   -4.8451    0.2723 C.ar      1 <0>        -0.2247
     13 C9         -1.7946   -5.2958    0.1471 C.2       1 <0>         0.5656
     14 O3         -0.8965   -4.4790    0.0771 O.2       1 <0>        -0.5033
     15 N2         -1.5119   -6.6130    0.1102 N.am      1 <0>        -0.7468
     16 C10        -0.1226   -7.0608   -0.0142 C.3       1 <0>         0.1667
     17 C11        -0.0800   -8.5671   -0.0321 C.ar      1 <0>        -0.0782
     18 C12         0.0371   -9.2690    1.1538 C.ar      1 <0>        -0.1142
     19 C13         0.0760  -10.6510    1.1417 C.ar      1 <0>        -0.1029
     20 C14        -0.0019  -11.3351   -0.0557 C.ar      1 <0>        -0.1187
     21 C15        -0.1194  -10.6334   -1.2481 C.ar      1 <0>         0.1380
     22 C16        -0.1636   -9.2453   -1.2321 C.ar      1 <0>        -0.1261
     23 N3         -0.1981  -11.3234   -2.4629 N.am      1 <0>        -0.6740
     24 C17        -0.8106  -12.5227   -2.5182 C.2       1 <0>         0.5089
     25 O4         -1.3766  -12.9604   -1.5388 O.2       1 <0>        -0.5262
     26 C18        -0.7923  -13.3199   -3.7970 C.3       1 <0>        -0.1715
     27 H1         -0.4739    1.9361    0.1009 H         1 <0>         0.0679
     28 H2         -2.0716    1.7298   -0.6561 H         1 <0>         0.0635
     29 H3         -1.9181    1.7131    1.1171 H         1 <0>         0.0636
     30 H4         -0.7463   -0.3617   -0.7905 H         1 <0>         0.1201
     31 H5         -0.5929   -0.3784    0.9827 H         1 <0>         0.1203
     32 H6         -5.0509   -2.0092    0.4502 H         1 <0>         0.1058
     33 H7         -6.8516   -3.6730    0.5895 H         1 <0>         0.1038
     34 H8         -6.3315   -6.0764    0.5313 H         1 <0>         0.1043
     35 H9         -4.0054   -6.8366    0.3332 H         1 <0>         0.1042
     36 H10        -2.2283   -7.2646    0.1661 H         1 <0>         0.3922
     37 H11         0.3022   -6.6743   -0.9407 H         1 <0>         0.0690
     38 H12         0.4556   -6.6910    0.8326 H         1 <0>         0.0712
     39 H13         0.0985   -8.7364    2.0914 H         1 <0>         0.1270
     40 H14         0.1679  -11.1962    2.0695 H         1 <0>         0.1261
     41 H15         0.0290  -12.4147   -0.0646 H         1 <0>         0.1313
     42 H16        -0.2591   -8.6968   -2.1575 H         1 <0>         0.1279
     43 H17         0.1881  -10.9387   -3.2651 H         1 <0>         0.4115
     44 H18         0.0824  -13.9703   -3.8071 H         1 <0>         0.0969
     45 H19        -1.6962  -13.9256   -3.8605 H         1 <0>         0.0967
     46 H20        -0.7497  -12.6403   -4.6482 H         1 <0>         0.0826
@<TRIPOS>BOND
     1    1    2 1
     2    1   27 1
     3    1   28 1
     4    1   29 1
     5    2    3 1
     6    2   30 1
     7    2   31 1
     8    3    4 2
     9    3    5 2
    10    3    6 1
    11    6    7 1
    12    7   12 ar
    13    7    8 ar
    14    8    9 ar
    15    8   32 1
    16    9   10 ar
    17    9   33 1
    18   10   11 ar
    19   10   34 1
    20   11   12 ar
    21   11   35 1
    22   12   13 1
    23   13   14 2
    24   13   15 am
    25   15   16 1
    26   15   36 1
    27   16   17 1
    28   16   37 1
    29   16   38 1
    30   17   22 ar
    31   17   18 ar
    32   18   19 ar
    33   18   39 1
    34   19   20 ar
    35   19   40 1
    36   20   21 ar
    37   20   41 1
    38   21   22 ar
    39   21   23 1
    40   22   42 1
    41   23   24 am
    42   23   43 1
    43   24   25 2
    44   24   26 1
    45   26   44 1
    46   26   45 1
    47   26   46 1
@<TRIPOS>MOLECULE
ZINC13247720
   46    47     0     0     0
SMALL
USER_CHARGES
3-[[(1R,2S)-2-hydroxy-2-(4-hydroxyphenyl)-1-methyl-ethyl]sulfamoyl]-4,5-dimethyl-benzoic acid
@<TRIPOS>ATOM
      1 C1         -6.0221    1.4285    0.2956 C.3       1 <0>        -0.1092
      2 C2         -5.0472    0.3001    0.0781 C.ar      1 <0>        -0.1281
      3 C3         -5.2250   -0.8995    0.7359 C.ar      1 <0>        -0.0171
      4 C4         -4.3206   -1.9436    0.5335 C.ar      1 <0>        -0.1324
      5 C5         -3.2413   -1.7657   -0.3345 C.ar      1 <0>         0.0103
      6 C6         -3.0755   -0.5612   -0.9857 C.ar      1 <0>        -0.6889
      7 C7         -3.9726    0.4715   -0.7762 C.ar      1 <0>         0.0085
      8 C8         -3.7814    1.7868   -1.4865 C.3       1 <0>        -0.1351
      9 S1         -1.7144   -0.3345   -2.0815 S.o2      1 <0>         2.6959
     10 O1         -2.2447    0.2162   -3.2793 O.2       1 <0>        -0.9614
     11 O2         -0.9722   -1.5461   -2.0633 O.2       1 <0>        -0.9586
     12 N1         -0.7395    0.8277   -1.4172 N.pl3     1 <0>        -1.1096
     13 C9         -0.0587    0.5734   -0.1452 C.3       1 <0>         0.1203
     14 H1          0.0427   -0.5016    0.0041 H         1 <0>         0.1060
     15 C10        -0.8776    1.1723    1.0001 C.3       1 <0>        -0.1874
     16 C11         1.3287    1.2177   -0.1715 C.3       1 <0>         0.1491
     17 H2          1.8805    0.8569   -1.0395 H         1 <0>         0.1188
     18 C12         2.0757    0.8534    1.0857 C.ar      1 <0>        -0.1252
     19 C13         1.8237    1.5370    2.2608 C.ar      1 <0>        -0.0919
     20 C14         2.5030    1.2012    3.4159 C.ar      1 <0>        -0.1430
     21 C15         3.4472    0.1850    3.3933 C.ar      1 <0>         0.1072
     22 C16         3.7023   -0.4956    2.2116 C.ar      1 <0>        -0.1416
     23 C17         3.0159   -0.1600    1.0607 C.ar      1 <0>        -0.0875
     24 O3          4.1214   -0.1429    4.5268 O.3       1 <0>        -0.4987
     25 O4          1.1929    2.6381   -0.2502 O.3       1 <0>        -0.5493
     26 C18        -4.5044   -3.2307    1.2349 C.2       1 <0>         0.4897
     27 O5         -3.7156   -4.1373    1.0571 O.co2     1 <0>        -0.6239
     28 H3         -5.6849    2.0443    1.1295 H         1 <0>         0.0669
     29 H4         -6.0795    2.0380   -0.6062 H         1 <0>         0.0661
     30 H5         -7.0069    1.0195    0.5210 H         1 <0>         0.0673
     31 H6         -6.0621   -1.0306    1.4057 H         1 <0>         0.1382
     32 H7         -2.5378   -2.5692   -0.4953 H         1 <0>         0.1466
     33 H8         -4.3210    1.7701   -2.4334 H         1 <0>         0.0895
     34 H9         -4.1650    2.5951   -0.8640 H         1 <0>         0.0793
     35 H10        -2.7199    1.9465   -1.6760 H         1 <0>         0.0613
     36 H11        -0.6191    1.6768   -1.8704 H         1 <0>         0.4197
     37 H12        -0.8862    2.2586    0.9113 H         1 <0>         0.0633
     38 H13        -1.8993    0.7957    0.9519 H         1 <0>         0.0764
     39 H14        -0.4306    0.8892    1.9531 H         1 <0>         0.0761
     40 H15         1.0922    2.3315    2.2766 H         1 <0>         0.1271
     41 H16         2.3029    1.7328    4.3345 H         1 <0>         0.1300
     42 H17         4.4366   -1.2873    2.1916 H         1 <0>         0.1312
     43 H18         3.2141   -0.6896    0.1405 H         1 <0>         0.1323
     44 H19         4.9439    0.3500    4.6517 H         1 <0>         0.3895
     45 H20         0.7108    3.0288    0.4915 H         1 <0>         0.3735
     46 O6         -5.5466   -3.3991    2.0716 O.co2     1 <0>        -0.7512
@<TRIPOS>BOND
     1    1    2 1
     2    1   28 1
     3    1   29 1
     4    1   30 1
     5    2    7 ar
     6    2    3 ar
     7    3    4 ar
     8    3   31 1
     9    4    5 ar
    10    4   26 1
    11    5    6 ar
    12    5   32 1
    13    6    7 ar
    14    6    9 1
    15    7    8 1
    16    8   33 1
    17    8   34 1
    18    8   35 1
    19    9   10 2
    20    9   11 2
    21    9   12 1
    22   12   13 1
    23   12   36 1
    24   13   14 1
    25   13   15 1
    26   13   16 1
    27   15   37 1
    28   15   38 1
    29   15   39 1
    30   16   17 1
    31   16   18 1
    32   16   25 1
    33   18   23 ar
    34   18   19 ar
    35   19   20 ar
    36   19   40 1
    37   20   21 ar
    38   20   41 1
    39   21   22 ar
    40   21   24 1
    41   22   23 ar
    42   22   42 1
    43   23   43 1
    44   24   44 1
    45   25   45 1
    46   26   27 2
    47   26   46 1
@<TRIPOS>MOLECULE
ZINC24123965
   40    42     0     0     0
SMALL
USER_CHARGES
4-bromo-N'-[2-[3-(p-tolyl)-5-thioxo-1H-1,2,4-triazol-4-yl]acetyl]-1H-pyrrole-2-carbohydrazide
@<TRIPOS>ATOM
      1 C1          2.0835    2.1211    6.5461 C.3       1 <0>        -0.1141
      2 C2          2.3508    1.7223    5.1177 C.ar      1 <0>        -0.0901
      3 C3          3.5807    1.1933    4.7689 C.ar      1 <0>        -0.1155
      4 C4          3.8318    0.8267    3.4626 C.ar      1 <0>        -0.0813
      5 C5          2.8424    0.9902    2.4928 C.ar      1 <0>         0.0058
      6 C6          1.6063    1.5295    2.8498 C.ar      1 <0>        -0.1181
      7 C7          1.3655    1.8870    4.1606 C.ar      1 <0>        -0.1156
      8 C8          3.1051    0.5990    1.0901 C.2       1 <0>         0.2066
      9 N1          4.0198   -0.2402    0.6924 N.2       1 <0>        -0.3039
     10 N2          3.9475   -0.3313   -0.7043 N.2       1 <0>        -0.3763
     11 C9          2.9515    0.4814   -1.1130 C.2       1 <0>         0.4009
     12 S1          2.4521    0.7330   -2.7311 S.3       1 <0>        -0.7672
     13 N3          2.4202    1.0592   -0.0173 N.pl3     1 <0>        -0.4848
     14 C10         1.3108    2.0159   -0.0039 C.3       1 <0>         0.1003
     15 C11         0.0044    1.2690    0.0766 C.2       1 <0>         0.5089
     16 O1          0.0004    0.0569    0.1186 O.2       1 <0>        -0.5161
     17 N4         -1.1598    1.9478    0.0962 N.am      1 <0>        -0.5333
     18 N5         -2.3746    1.2533    0.1652 N.am      1 <0>        -0.5266
     19 C12        -3.5387    1.9321    0.1848 C.2       1 <0>         0.5934
     20 O2         -3.5347    3.1483    0.1426 O.2       1 <0>        -0.5321
     21 C13        -4.8105    1.2050    0.2570 C.2       1 <0>        -0.0438
     22 C14        -6.0694    1.7665    0.2902 C.2       1 <0>        -0.0747
     23 C15        -6.9877    0.7133    0.3546 C.2       1 <0>        -0.1870
     24 C16        -6.2885   -0.4473    0.3688 C.2       1 <0>         0.0817
     25 N6         -4.9642   -0.1618    0.3099 N.pl3     1 <0>        -0.5415
     26 H1         -4.0796   -0.8155    0.2997 H         1 <0>         0.4520
     27 Br1        -8.8703    0.8798    0.4179 Br        1 <0>        -0.0260
     28 H2          2.9758    1.9182    7.1565 H         1 <0>         0.0647
     29 H3          1.2333    1.5419    6.9355 H         1 <0>         0.0675
     30 H4          1.8463    3.1944    6.5889 H         1 <0>         0.0683
     31 H5          4.3457    1.0669    5.5206 H         1 <0>         0.1257
     32 H6          4.7924    0.4142    3.1915 H         1 <0>         0.1346
     33 H7          0.8380    1.6631    2.1026 H         1 <0>         0.1179
     34 H8          0.4076    2.3008    4.4390 H         1 <0>         0.1222
     35 H9          1.4087    2.6786    0.8686 H         1 <0>         0.1190
     36 H10         1.3336    2.6167   -0.9251 H         1 <0>         0.1359
     37 H11        -1.1561    3.0471    0.0580 H         1 <0>         0.4591
     38 H12        -2.3783    0.1540    0.2034 H         1 <0>         0.4459
     39 H13        -6.3026    2.8208    0.2680 H         1 <0>         0.1567
     40 H14        -6.7160   -1.4378    0.4194 H         1 <0>         0.1813
@<TRIPOS>BOND
     1    1    2 1
     2    1   28 1
     3    1   29 1
     4    1   30 1
     5    2    7 ar
     6    2    3 ar
     7    3    4 ar
     8    3   31 1
     9    4    5 ar
    10    4   32 1
    11    5    6 ar
    12    5    8 1
    13    6    7 ar
    14    6   33 1
    15    7   34 1
    16    8   13 1
    17    8    9 2
    18    9   10 1
    19   10   11 2
    20   11   12 1
    21   11   13 1
    22   13   14 1
    23   14   15 1
    24   14   35 1
    25   14   36 1
    26   15   16 2
    27   15   17 am
    28   17   18 1
    29   17   37 1
    30   18   19 am
    31   18   38 1
    32   19   20 2
    33   19   21 1
    34   21   25 1
    35   21   22 2
    36   22   23 1
    37   22   39 1
    38   23   24 2
    39   23   27 1
    40   24   25 1
    41   24   40 1
    42   25   26 1
@<TRIPOS>MOLECULE
ZINC39558317
   36    37     0     0     0
SMALL
USER_CHARGES

@<TRIPOS>ATOM
      1 C1          0.1136    1.1569   -0.7560 C.ar      1 <0>        -0.0518
      2 C2          1.2985    1.8679   -0.7572 C.ar      1 <0>        -0.2174
      3 C3          2.3838    1.4134   -0.0189 C.ar      1 <0>         0.1710
      4 C4          2.2774    0.2441    0.7204 C.ar      1 <0>        -0.2049
      5 C5          1.0862   -0.4677    0.7196 C.ar      1 <0>         0.2989
      6 C6          0.0041   -0.0075   -0.0211 C.ar      1 <0>        -0.2682
      7 N1          0.9751   -1.6455    1.4621 N.2       1 <0>        -1.1125
      8 S1         -0.4469   -2.4942    1.4605 S.o2      1 <0>         2.7176
      9 O1         -1.4111   -1.6725    2.1043 O.2       1 <0>        -1.0546
     10 O2         -0.6252   -2.9855    0.1391 O.2       1 <0>        -1.0583
     11 N2         -0.2285   -3.8174    2.4320 N.pl3     1 <0>        -1.2500
     12 N3          3.5834    2.1338   -0.0212 N.am      1 <0>        -0.6614
     13 C7          3.5619    3.4781   -0.1159 C.2       1 <0>         0.5092
     14 O3          2.5035    4.0702   -0.1028 O.2       1 <0>        -0.4943
     15 C8          4.8531    4.2455   -0.2382 C.3       1 <0>         0.0410
     16 O4          4.5700    5.6436   -0.3231 O.3       1 <0>        -0.2830
     17 C9          5.6332    6.4826   -0.4385 C.ar      1 <0>         0.1398
     18 C10         6.9217    5.9699   -0.4750 C.ar      1 <0>        -0.2004
     19 C11         8.0009    6.8242   -0.5923 C.ar      1 <0>        -0.0680
     20 C12         7.7974    8.1904   -0.6729 C.ar      1 <0>        -0.0762
     21 C13         6.5130    8.7037   -0.6361 C.ar      1 <0>        -0.0691
     22 C14         5.4308    7.8522   -0.5256 C.ar      1 <0>        -0.1363
     23 Cl1         9.1553    9.2620   -0.8196 Cl        1 <0>        -0.0745
     24 H1         -0.7302    1.5149   -1.3273 H         1 <0>         0.1070
     25 H2          1.3809    2.7778   -1.3331 H         1 <0>         0.1150
     26 H3          3.1200   -0.1115    1.2949 H         1 <0>         0.1150
     27 H4         -0.9235   -0.5607   -0.0220 H         1 <0>         0.0982
     28 H5         -0.9807   -4.1939    2.9151 H         1 <0>         0.4024
     29 H6          0.6517   -4.2160    2.5179 H         1 <0>         0.4074
     30 H7          4.4303    1.6658    0.0454 H         1 <0>         0.4060
     31 H8          5.4744    4.0531    0.6365 H         1 <0>         0.0960
     32 H9          5.3817    3.9266   -1.1365 H         1 <0>         0.0969
     33 H10         7.0810    4.9036   -0.4115 H         1 <0>         0.1392
     34 H11         9.0042    6.4254   -0.6208 H         1 <0>         0.1363
     35 H12         6.3562    9.7705   -0.6987 H         1 <0>         0.1404
     36 H13         4.4282    8.2529   -0.5017 H         1 <0>         0.1437
@<TRIPOS>BOND
     1    1    6 ar
     2    1    2 ar
     3    1   24 1
     4    2    3 ar
     5    2   25 1
     6    3    4 ar
     7    3   12 1
     8    4    5 ar
     9    4   26 1
    10    5    6 ar
    11    5    7 1
    12    6   27 1
    13    7    8 1
    14    8    9 2
    15    8   10 2
    16    8   11 1
    17   11   28 1
    18   11   29 1
    19   12   13 am
    20   12   30 1
    21   13   14 2
    22   13   15 1
    23   15   16 1
    24   15   31 1
    25   15   32 1
    26   16   17 1
    27   17   22 ar
    28   17   18 ar
    29   18   19 ar
    30   18   33 1
    31   19   20 ar
    32   19   34 1
    33   20   21 ar
    34   20   23 1
    35   21   22 ar
    36   21   35 1
    37   22   36 1
@<TRIPOS>MOLECULE
ZINC07528985
   39    40     0     0     0
SMALL
USER_CHARGES

@<TRIPOS>ATOM
      1 C1         -0.0178    1.4608    0.0101 C.3       1 <0>         0.0905
      2 N1          0.0021   -0.0041    0.0020 N.pl3     1 <0>        -0.6901
      3 C2          0.6044   -0.6754    1.0035 C.2       1 <0>         0.5602
      4 S1          1.3462    0.1837    2.2852 S.2       1 <0>        -0.5974
      5 N2          0.6227   -2.0230    0.9961 N.pl3     1 <0>        -0.4642
      6 N3          0.0156   -2.7260   -0.0527 N.am      1 <0>        -0.5511
      7 C3          0.0338   -4.0736   -0.0601 C.2       1 <0>         0.5735
      8 O1          0.5770   -4.6791    0.8432 O.2       1 <0>        -0.5069
      9 C4         -0.6068   -4.8156   -1.1668 C.ar      1 <0>        -0.1620
     10 C5         -1.2265   -4.1232   -2.2087 C.ar      1 <0>        -0.0515
     11 C6         -1.8220   -4.8214   -3.2385 C.ar      1 <0>        -0.1469
     12 C7         -1.8064   -6.2052   -3.2401 C.ar      1 <0>         0.0126
     13 C8         -1.1944   -6.8973   -2.2105 C.ar      1 <0>        -0.6188
     14 C9         -0.5897   -6.2110   -1.1775 C.ar      1 <0>         0.0472
     15 S2         -1.1808   -8.6593   -2.2220 S.o2      1 <0>         2.6003
     16 O2         -1.0226   -9.0730   -0.8718 O.2       1 <0>        -1.0201
     17 O3         -2.2829   -9.0687   -3.0201 O.2       1 <0>        -1.0231
     18 N4          0.1875   -9.1331   -3.0256 N.2       1 <0>        -1.0854
     19 C10         0.4650  -10.4919   -3.1910 C.ar      1 <0>         0.2886
     20 C11        -0.4090  -11.4473   -2.6870 C.ar      1 <0>        -0.2602
     21 C12        -0.1325  -12.7901   -2.8524 C.ar      1 <0>        -0.0546
     22 C13         1.0132  -13.1851   -3.5185 C.ar      1 <0>        -0.2163
     23 C14         1.8861  -12.2366   -4.0220 C.ar      1 <0>         0.0146
     24 C15         1.6119  -10.8908   -3.8646 C.ar      1 <0>        -0.1735
     25 Cl1         3.3234  -12.7372   -4.8571 Cl        1 <0>        -0.1046
     26 H1          1.0048    1.8381    0.0023 H         1 <0>         0.0830
     27 H2         -0.5450    1.8219   -0.8730 H         1 <0>         0.0839
     28 H3         -0.5280    1.8123    0.9069 H         1 <0>         0.0828
     29 H4         -0.4183   -0.4908   -0.7241 H         1 <0>         0.3927
     30 H5          1.0561   -2.5061    1.7169 H         1 <0>         0.4606
     31 H6         -0.4179   -2.2429   -0.7735 H         1 <0>         0.4182
     32 H7         -1.2399   -3.0433   -2.2082 H         1 <0>         0.1230
     33 H8         -2.3017   -4.2870   -4.0451 H         1 <0>         0.1393
     34 H9         -2.2744   -6.7471   -4.0486 H         1 <0>         0.1477
     35 H10        -0.1081   -6.7524   -0.3768 H         1 <0>         0.1549
     36 H11        -1.3036  -11.1399   -2.1660 H         1 <0>         0.1026
     37 H12        -0.8117  -13.5328   -2.4606 H         1 <0>         0.1134
     38 H13         1.2273  -14.2360   -3.6458 H         1 <0>         0.1138
     39 H14         2.2909  -10.1507   -4.2615 H         1 <0>         0.1235
@<TRIPOS>BOND
     1    1    2 1
     2    1   26 1
     3    1   27 1
     4    1   28 1
     5    2    3 1
     6    2   29 1
     7    3    4 2
     8    3    5 1
     9    5    6 1
    10    5   30 1
    11    6    7 am
    12    6   31 1
    13    7    8 2
    14    7    9 1
    15    9   14 ar
    16    9   10 ar
    17   10   11 ar
    18   10   32 1
    19   11   12 ar
    20   11   33 1
    21   12   13 ar
    22   12   34 1
    23   13   14 ar
    24   13   15 1
    25   14   35 1
    26   15   16 2
    27   15   17 2
    28   15   18 1
    29   18   19 1
    30   19   24 ar
    31   19   20 ar
    32   20   21 ar
    33   20   36 1
    34   21   22 ar
    35   21   37 1
    36   22   23 ar
    37   22   38 1
    38   23   24 ar
    39   23   25 1
    40   24   39 1
@<TRIPOS>MOLECULE
ZINC66122535
   45    46     0     0     0
SMALL
USER_CHARGES

@<TRIPOS>ATOM
      1 C1         -0.0879    2.6017    0.1488 C.3       1 <0>        -0.1200
      2 C2          0.0518    1.1710   -0.3033 C.ar      1 <0>        -0.0088
      3 C3          0.0864    0.8470   -1.6497 C.ar      1 <0>        -0.0756
      4 N1          0.2096   -0.4110   -2.0249 N.ar      1 <0>        -0.1798
      5 N2          0.3016   -1.3771   -1.1860 N.ar      1 <0>        -0.3378
      6 C4          0.2794   -1.1798    0.1236 C.ar      1 <0>         0.3895
      7 O1          0.3795   -2.2296    0.9736 O.3       1 <0>        -0.6762
      8 C5          0.1566    0.1271    0.6243 C.ar      1 <0>        -0.2651
      9 C6          0.1335    0.3904    2.0787 C.2       1 <0>         0.6213
     10 O2         -0.9236    0.3954    2.6788 O.2       1 <0>        -0.5233
     11 N3          1.2845    0.6251    2.7394 N.am      1 <0>        -0.5473
     12 N4          1.2626    0.8747    4.1179 N.pl3     1 <0>        -0.4525
     13 C7          2.4136    1.1093    4.7786 C.2       1 <0>         0.5605
     14 S1          2.3869    1.4143    6.4630 S.2       1 <0>        -0.5978
     15 N5          3.5857    1.1038    4.1133 N.pl3     1 <0>        -0.6338
     16 C8          4.7665    1.4597    4.7736 C.ar      1 <0>         0.1324
     17 C9          4.7915    2.5737    5.6029 C.ar      1 <0>        -0.0674
     18 C10         5.9587    2.9224    6.2533 C.ar      1 <0>        -0.1177
     19 C11         7.1020    2.1637    6.0796 C.ar      1 <0>        -0.1122
     20 C12         7.0805    1.0546    5.2544 C.ar      1 <0>        -0.1118
     21 C13         5.9146    0.6968    4.6059 C.ar      1 <0>        -0.0744
     22 C14         5.8902   -0.5165    3.7123 C.3       1 <0>        -0.0608
     23 C15         6.8862   -0.3262    2.5667 C.3       1 <0>        -0.1442
     24 C16         6.2762   -1.7550    4.5234 C.3       1 <0>        -0.1413
     25 C17        -0.0175    1.9346   -2.6877 C.3       1 <0>        -0.0741
     26 H1          0.9012    3.0473    0.2554 H         1 <0>         0.0731
     27 H2         -0.6610    3.1619   -0.5900 H         1 <0>         0.0797
     28 H3         -0.6049    2.6309    1.1080 H         1 <0>         0.0639
     29 H4          2.1281    0.6211    2.2606 H         1 <0>         0.4181
     30 H5          0.4190    0.8786    4.5967 H         1 <0>         0.4594
     31 H6          3.6105    0.8531    3.1765 H         1 <0>         0.4025
     32 H7          3.8992    3.1668    5.7387 H         1 <0>         0.1391
     33 H8          5.9789    3.7886    6.8980 H         1 <0>         0.1258
     34 H9          8.0136    2.4385    6.5894 H         1 <0>         0.1223
     35 H10         7.9751    0.4644    5.1206 H         1 <0>         0.1249
     36 H11         4.8879   -0.6472    3.3044 H         1 <0>         0.0688
     37 H12         7.8885   -0.1955    2.9746 H         1 <0>         0.0598
     38 H13         6.8686   -1.2038    1.9204 H         1 <0>         0.0615
     39 H14         6.6112    0.5561    1.9888 H         1 <0>         0.0550
     40 H15         5.5666   -1.8905    5.3396 H         1 <0>         0.0578
     41 H16         6.2585   -2.6326    3.8772 H         1 <0>         0.0600
     42 H17         7.2785   -1.6243    4.9314 H         1 <0>         0.0586
     43 H18         0.9803    2.2966   -2.9357 H         1 <0>         0.0597
     44 H19        -0.4929    1.5369   -3.5843 H         1 <0>         0.0662
     45 H20        -0.6149    2.7568   -2.2939 H         1 <0>         0.0620
@<TRIPOS>BOND
     1    1    2 1
     2    1   26 1
     3    1   27 1
     4    1   28 1
     5    2    8 ar
     6    2    3 ar
     7    3    4 ar
     8    3   25 1
     9    4    5 ar
    10    5    6 ar
    11    6    7 1
    12    6    8 ar
    13    8    9 1
    14    9   10 2
    15    9   11 am
    16   11   12 1
    17   11   29 1
    18   12   13 1
    19   12   30 1
    20   13   14 2
    21   13   15 1
    22   15   16 1
    23   15   31 1
    24   16   21 ar
    25   16   17 ar
    26   17   18 ar
    27   17   32 1
    28   18   19 ar
    29   18   33 1
    30   19   20 ar
    31   19   34 1
    32   20   21 ar
    33   20   35 1
    34   21   22 1
    35   22   23 1
    36   22   24 1
    37   22   36 1
    38   23   37 1
    39   23   38 1
    40   23   39 1
    41   24   40 1
    42   24   41 1
    43   24   42 1
    44   25   43 1
    45   25   44 1
    46   25   45 1
@<TRIPOS>MOLECULE
ZINC13212120
   40    40     0     0     0
SMALL
USER_CHARGES
2-[(2-amino-2-oxo-ethyl)amino]-5-(diethylsulfamoyl)benzoic acid
@<TRIPOS>ATOM
      1 C1         -3.9207    5.8970   -2.5901 C.3       1 <0>        -0.1715
      2 C2         -2.4659    5.4244   -2.5576 C.3       1 <0>         0.1180
      3 N1         -1.6574    6.3844   -1.8019 N.pl3     1 <0>        -0.9997
      4 C3         -1.1109    7.5680   -2.4702 C.3       1 <0>         0.1131
      5 C4          0.2138    7.2065   -3.1450 C.3       1 <0>        -0.1788
      6 S1         -1.3614    6.1316   -0.1923 S.o2      1 <0>         2.6951
      7 O1         -2.4090    5.3001    0.2876 O.2       1 <0>        -0.9589
      8 O2         -1.0789    7.4041    0.3734 O.2       1 <0>        -0.9725
      9 C5          0.1227    5.1887   -0.0774 C.ar      1 <0>        -0.7527
     10 C6          1.3456    5.8359    0.0090 C.ar      1 <0>         0.0254
     11 C7          2.5154    5.1104    0.0991 C.ar      1 <0>        -0.2430
     12 C8          2.4745    3.7213    0.1042 C.ar      1 <0>         0.2988
     13 C9          1.2376    3.0627    0.0173 C.ar      1 <0>        -0.2129
     14 C10         0.0618    3.8129   -0.0787 C.ar      1 <0>         0.0692
     15 C11         1.1796    1.5910    0.0211 C.2       1 <0>         0.4994
     16 O3          2.2070    0.9424   -0.0032 O.co2     1 <0>        -0.6262
     17 N2          3.6504    2.9888    0.1952 N.pl3     1 <0>        -0.7065
     18 C12         4.9268    3.6758    0.4072 C.3       1 <0>         0.0934
     19 C13         6.0393    2.6611    0.4687 C.2       1 <0>         0.5073
     20 O4          5.7904    1.4803    0.3473 O.2       1 <0>        -0.5153
     21 N3          7.3107    3.0658    0.6586 N.am      1 <0>        -0.8560
     22 H1         -4.3018    5.9705   -1.5715 H         1 <0>         0.0631
     23 H2         -3.9746    6.8743   -3.0697 H         1 <0>         0.0549
     24 H3         -4.5223    5.1827   -3.1524 H         1 <0>         0.0667
     25 H4         -2.0849    5.3509   -3.5762 H         1 <0>         0.0774
     26 H5         -2.4120    4.4470   -2.0780 H         1 <0>         0.0866
     27 H6         -1.8175    7.9196   -3.2219 H         1 <0>         0.0786
     28 H7         -0.9413    8.3545   -1.7349 H         1 <0>         0.0902
     29 H8          0.0443    6.4199   -3.8803 H         1 <0>         0.0604
     30 H9          0.6205    8.0871   -3.6422 H         1 <0>         0.0644
     31 H10         0.9205    6.8549   -2.3932 H         1 <0>         0.0612
     32 H11         1.3828    6.9153    0.0055 H         1 <0>         0.1290
     33 H12         3.4640    5.6224    0.1653 H         1 <0>         0.1231
     34 H13        -0.8934    3.3140   -0.1504 H         1 <0>         0.1441
     35 H14         3.6268    2.0222    0.1183 H         1 <0>         0.4361
     36 H15         5.1094    4.3657   -0.4167 H         1 <0>         0.0891
     37 H16         4.8892    4.2311    1.3445 H         1 <0>         0.0896
     38 H17         7.5098    4.0102    0.7557 H         1 <0>         0.4009
     39 H18         8.0268    2.4126    0.6982 H         1 <0>         0.4031
     40 O5         -0.0128    0.9637    0.0514 O.co2     1 <0>        -0.7441
@<TRIPOS>BOND
     1    1    2 1
     2    1   22 1
     3    1   23 1
     4    1   24 1
     5    2    3 1
     6    2   25 1
     7    2   26 1
     8    3    4 1
     9    3    6 1
    10    4    5 1
    11    4   27 1
    12    4   28 1
    13    5   29 1
    14    5   30 1
    15    5   31 1
    16    6    7 2
    17    6    8 2
    18    6    9 1
    19    9   14 ar
    20    9   10 ar
    21   10   11 ar
    22   10   32 1
    23   11   12 ar
    24   11   33 1
    25   12   13 ar
    26   12   17 1
    27   13   14 ar
    28   13   15 1
    29   14   34 1
    30   15   16 2
    31   15   40 1
    32   17   18 1
    33   17   35 1
    34   18   19 1
    35   18   36 1
    36   18   37 1
    37   19   20 2
    38   19   21 am
    39   21   38 1
    40   21   39 1
@<TRIPOS>MOLECULE
ZINC37115624
   31    32     0     0     0
SMALL
USER_CHARGES

@<TRIPOS>ATOM
      1 C1         -1.6993    1.0243   -0.1956 C.3       1 <0>        -0.0320
      2 C2         -1.3993   -0.4525   -0.2014 C.2       1 <0>        -0.3173
      3 C3         -2.2432   -1.5048   -0.3253 C.2       1 <0>         0.0999
      4 N1         -1.7066   -2.7120   -0.2971 N.2       1 <0>        -0.6615
      5 C4         -0.4085   -2.8750   -0.1547 C.2       1 <0>         0.3975
      6 S1          0.1671   -1.2966   -0.0550 S.3       1 <0>         0.0209
      7 N2          0.3107   -4.0589   -0.1046 N.2       1 <0>        -1.0310
      8 S2         -0.4751   -5.5110   -0.2324 S.o2      1 <0>         2.6405
      9 O1         -1.2890   -5.6357    0.9258 O.2       1 <0>        -1.0057
     10 O2         -1.0083   -5.5698   -1.5482 O.2       1 <0>        -1.0050
     11 C5          0.7472   -6.7758   -0.1273 C.ar      1 <0>        -0.6737
     12 C6          1.3650   -7.2353   -1.2763 C.ar      1 <0>         0.0653
     13 C7          2.3237   -8.2260   -1.1975 C.ar      1 <0>        -0.2054
     14 C8          2.6674   -8.7612    0.0376 C.ar      1 <0>         0.3125
     15 C9          2.0450   -8.2974    1.1894 C.ar      1 <0>        -0.1412
     16 C10         1.0907   -7.3025    1.1040 C.ar      1 <0>         0.0855
     17 N3          2.4077   -8.8651    2.5073 N.pl3     1 <0>         0.0468
     18 O3          2.6559  -10.0438    2.6102 O.2       1 <0>        -0.1911
     19 O4          2.4557   -8.1500    3.4809 O.3       1 <0>        -0.1421
     20 N4          3.6364   -9.7638    0.1209 N.pl3     1 <0>        -0.5744
     21 N5          4.1664  -10.2977   -1.0193 N.3       1 <0>        -0.5989
     22 H1         -0.7705    1.5833   -0.0809 H         1 <0>         0.0567
     23 H2         -2.1767    1.3019   -1.1353 H         1 <0>         0.0576
     24 H3         -2.3675    1.2561    0.6338 H         1 <0>         0.0578
     25 H4         -3.3076   -1.3634   -0.4416 H         1 <0>         0.1452
     26 H5          1.0971   -6.8191   -2.2362 H         1 <0>         0.1568
     27 H6          2.8055   -8.5847   -2.0951 H         1 <0>         0.1524
     28 H7          0.6096   -6.9383    1.9997 H         1 <0>         0.1620
     29 H8          3.9329  -10.0809    0.9883 H         1 <0>         0.4149
     30 H9          4.5647   -9.5785   -1.6042 H         1 <0>         0.3415
     31 H10         4.8502  -11.0072   -0.8023 H         1 <0>         0.3654
@<TRIPOS>BOND
     1    1    2 1
     2    1   22 1
     3    1   23 1
     4    1   24 1
     5    2    6 1
     6    2    3 2
     7    3    4 1
     8    3   25 1
     9    4    5 2
    10    5    6 1
    11    5    7 1
    12    7    8 1
    13    8    9 2
    14    8   10 2
    15    8   11 1
    16   11   16 ar
    17   11   12 ar
    18   12   13 ar
    19   12   26 1
    20   13   14 ar
    21   13   27 1
    22   14   15 ar
    23   14   20 1
    24   15   16 ar
    25   15   17 1
    26   16   28 1
    27   17   18 2
    28   17   19 1
    29   20   21 1
    30   20   29 1
    31   21   30 1
    32   21   31 1
@<TRIPOS>MOLECULE
ZINC44699745
   40    41     0     0     0
SMALL
USER_CHARGES

@<TRIPOS>ATOM
      1 C1         -0.0184    1.5028    0.0103 C.3       1 <0>        -0.0801
      2 C2          0.0021   -0.0041    0.0020 C.2       1 <0>         0.2772
      3 N1          0.0080   -0.7588   -1.0626 N.2       1 <0>        -0.4803
      4 C3          0.0278   -2.0475   -0.6911 C.2       1 <0>         0.1041
      5 C4          0.0345   -2.0930    0.6548 C.2       1 <0>        -0.0040
      6 N2          0.0232   -0.7970    1.0950 N.pl3     1 <0>        -0.4287
      7 C5          0.0296   -0.3529    2.4911 C.3       1 <0>         0.0915
      8 C6         -1.4104   -0.2188    2.9902 C.3       1 <0>         0.0547
      9 O1         -1.4042    0.2143    4.3519 O.3       1 <0>        -0.3596
     10 C7         -2.7069    0.3720    4.9177 C.3       1 <0>         0.2230
     11 H1         -3.3223    0.9755    4.2505 H         1 <0>         0.0580
     12 C8         -2.5926    1.0684    6.2763 C.3       1 <0>         0.1039
     13 H2         -1.9442    0.4859    6.9308 H         1 <0>         0.0830
     14 C9         -3.9859    1.1796    6.9030 C.3       1 <0>         0.1261
     15 H3         -4.6203    1.8033    6.2733 H         1 <0>         0.0679
     16 C10        -4.5957   -0.2209    7.0171 C.3       1 <0>         0.0675
     17 H4         -3.9878   -0.8295    7.6866 H         1 <0>         0.0695
     18 C11        -4.6326   -0.8675    5.6299 C.3       1 <0>        -0.0011
     19 H5         -5.2734   -0.2803    4.9721 H         1 <0>         0.0635
     20 O2         -3.3098   -0.9119    5.0910 O.3       1 <0>        -0.3575
     21 C12        -5.1770   -2.2682    5.7426 C.2       1 <0>         0.5056
     22 O3         -6.3297   -2.4475    6.0968 O.co2     1 <0>        -0.6815
     23 O4         -4.4646   -3.2221    5.4796 O.co2     1 <0>        -0.6560
     24 O5         -5.9239   -0.1227    7.5350 O.3       1 <0>        -0.5661
     25 O6         -3.8801    1.7641    8.2027 O.3       1 <0>        -0.5518
     26 O7         -2.0420    2.3750    6.0984 O.3       1 <0>        -0.5475
     27 N3          0.0554   -3.3107    1.4964 N.pl3     1 <0>         0.0674
     28 O8          0.0690   -4.4031    0.9788 O.2       1 <0>        -0.1342
     29 O9          0.0589   -3.2126    2.7014 O.3       1 <0>        -0.1484
     30 H6          1.0042    1.8801    0.0026 H         1 <0>         0.0966
     31 H7         -0.5455    1.8639   -0.8728 H         1 <0>         0.1054
     32 H8         -0.5286    1.8543    0.9071 H         1 <0>         0.0864
     33 H9          0.0365   -2.8993   -1.3550 H         1 <0>         0.2020
     34 H10         0.5594   -1.0836    3.1023 H         1 <0>         0.1249
     35 H11         0.5305    0.6125    2.5630 H         1 <0>         0.1146
     36 H12        -1.9402    0.5119    2.3790 H         1 <0>         0.0566
     37 H13        -1.9113   -1.1842    2.9182 H         1 <0>         0.0751
     38 H14        -6.3715   -0.9742    7.6339 H         1 <0>         0.4032
     39 H15        -4.7268    1.8648    8.6588 H         1 <0>         0.3867
     40 H16        -1.1605    2.3795    5.7009 H         1 <0>         0.3820
@<TRIPOS>BOND
     1    1    2 1
     2    1   30 1
     3    1   31 1
     4    1   32 1
     5    2    6 1
     6    2    3 2
     7    3    4 1
     8    4    5 2
     9    4   33 1
    10    5    6 1
    11    5   27 1
    12    6    7 1
    13    7    8 1
    14    7   34 1
    15    7   35 1
    16    8    9 1
    17    8   36 1
    18    8   37 1
    19    9   10 1
    20   10   11 1
    21   10   20 1
    22   10   12 1
    23   12   13 1
    24   12   14 1
    25   12   26 1
    26   14   15 1
    27   14   16 1
    28   14   25 1
    29   16   17 1
    30   16   18 1
    31   16   24 1
    32   18   19 1
    33   18   20 1
    34   18   21 1
    35   21   22 2
    36   21   23 1
    37   24   38 1
    38   25   39 1
    39   26   40 1
    40   27   28 2
    41   27   29 1
@<TRIPOS>MOLECULE
ZINC59293895
   46    48     0     0     0
SMALL
USER_CHARGES

@<TRIPOS>ATOM
      1 C1          0.4791    2.2121   -0.0920 C.3       1 <0>         0.0244
      2 O1          0.3709    0.7943    0.0501 O.3       1 <0>        -0.3083
      3 C2          0.8564    0.0331   -0.9670 C.ar      1 <0>         0.1038
      4 C3          1.4294    0.6375   -2.0743 C.ar      1 <0>        -0.1826
      5 C4          1.9228   -0.1377   -3.1071 C.ar      1 <0>        -0.0451
      6 C5          1.8457   -1.5164   -3.0384 C.ar      1 <0>        -0.1130
      7 C6          1.2749   -2.1258   -1.9366 C.ar      1 <0>        -0.0998
      8 C7          0.7840   -1.3547   -0.8952 C.ar      1 <0>         0.0755
      9 O2          0.2275   -1.9528    0.1920 O.3       1 <0>        -0.4857
     10 C8          2.5457    0.5214   -4.3107 C.3       1 <0>         0.1112
     11 H1          2.5152    1.6035   -4.1837 H         1 <0>         0.1032
     12 C9          3.9867    0.0739   -4.4349 C.2       1 <0>        -0.0482
     13 C10         4.2528   -0.9472   -5.2713 C.2       1 <0>         0.1484
     14 N1          3.3225   -1.5597   -6.1197 N.am      1 <0>        -0.5121
     15 C11         3.6186   -2.7408   -6.6624 C.2       1 <0>         0.5210
     16 O3          2.8023   -3.3727   -7.2979 O.2       1 <0>        -0.4690
     17 C12         5.0341   -3.2547   -6.4439 C.3       1 <0>        -0.0416
     18 H2          5.5287   -3.4695   -7.3912 H         1 <0>         0.1684
     19 S1          5.7787   -1.7830   -5.6162 S.3       1 <0>        -0.0156
     20 C13         5.0465   -4.4775   -5.5244 C.3       1 <0>        -0.1715
     21 C14         6.4479   -5.0245   -5.4351 C.2       1 <0>         0.5007
     22 O4          7.3528   -4.4862   -6.0498 O.co2     1 <0>        -0.6852
     23 O5          6.6768   -6.0054   -4.7480 O.co2     1 <0>        -0.6848
     24 C15         2.1302   -0.8633   -6.3751 C.2       1 <0>         0.4760
     25 C16         1.7683    0.1451   -5.5388 C.2       1 <0>        -0.3345
     26 C17         0.6067    0.8724   -5.8394 C.2       1 <0>         0.5433
     27 O6          0.6930    1.9687   -6.3634 O.2       1 <0>        -0.4981
     28 O7         -0.6073    0.3570   -5.5479 O.3       1 <0>        -0.3498
     29 C18        -1.7468    1.1521   -5.8816 C.3       1 <0>         0.0291
     30 N2          1.3459   -1.1943   -7.4488 N.pl3     1 <0>        -0.8343
     31 C19         5.0289    0.7131   -3.6895 C.1       1 <0>         0.2690
     32 N3          5.8557    1.2203   -3.0981 N.1       1 <0>        -0.3957
     33 H3          1.5290    2.4884   -0.1893 H         1 <0>         0.0565
     34 H4         -0.0644    2.5306   -0.9815 H         1 <0>         0.0545
     35 H5          0.0552    2.6987    0.7865 H         1 <0>         0.0994
     36 H6          1.4902    1.7143   -2.1308 H         1 <0>         0.1320
     37 H7          2.2320   -2.1186   -3.8474 H         1 <0>         0.1186
     38 H8          1.2155   -3.2029   -1.8856 H         1 <0>         0.1376
     39 H9         -0.7242   -2.1048    0.1133 H         1 <0>         0.3837
     40 H10         4.7054   -4.1882   -4.5304 H         1 <0>         0.0783
     41 H11         4.3830   -5.2424   -5.9280 H         1 <0>         0.0904
     42 H12        -2.6556    0.6227   -5.5952 H         1 <0>         0.0993
     43 H13        -1.6961    2.1015   -5.3486 H         1 <0>         0.0596
     44 H14        -1.7580    1.3384   -6.9555 H         1 <0>         0.0583
     45 H15         1.6673   -1.8310   -8.1062 H         1 <0>         0.4172
     46 H16         0.4693   -0.7919   -7.5515 H         1 <0>         0.4158
@<TRIPOS>BOND
     1    1    2 1
     2    1   33 1
     3    1   34 1
     4    1   35 1
     5    2    3 1
     6    3    8 ar
     7    3    4 ar
     8    4    5 ar
     9    4   36 1
    10    5    6 ar
    11    5   10 1
    12    6    7 ar
    13    6   37 1
    14    7    8 ar
    15    7   38 1
    16    8    9 1
    17    9   39 1
    18   10   11 1
    19   10   25 1
    20   10   12 1
    21   12   13 2
    22   12   31 1
    23   13   19 1
    24   13   14 1
    25   14   15 am
    26   14   24 1
    27   15   16 2
    28   15   17 1
    29   17   18 1
    30   17   19 1
    31   17   20 1
    32   20   21 1
    33   20   40 1
    34   20   41 1
    35   21   22 2
    36   21   23 1
    37   24   25 2
    38   24   30 1
    39   25   26 1
    40   26   27 2
    41   26   28 1
    42   28   29 1
    43   29   42 1
    44   29   43 1
    45   29   44 1
    46   30   45 1
    47   30   46 1
    48   31   32 3
@<TRIPOS>MOLECULE
ZINC64380919
   38    39     0     0     0
SMALL
USER_CHARGES

@<TRIPOS>ATOM
      1 C1          0.9665    1.3132   -0.5987 C.3       1 <0>        -0.1116
      2 C2          0.7256   -0.1681   -0.4616 C.ar      1 <0>         0.0017
      3 C3         -0.2863   -0.6315    0.3534 C.ar      1 <0>        -0.1517
      4 C4         -0.5088   -1.9911    0.4805 C.ar      1 <0>         0.0021
      5 C5          0.2807   -2.8958   -0.2079 C.ar      1 <0>        -0.6958
      6 C6          1.2962   -2.4471   -1.0259 C.ar      1 <0>         0.0110
      7 C7          1.5229   -1.0751   -1.1639 C.ar      1 <0>        -0.1416
      8 C8          2.6029   -0.5870   -2.0426 C.2       1 <0>         0.5253
      9 O1          2.3660    0.2652   -2.8871 O.co2     1 <0>        -0.6770
     10 O2          3.7350   -1.0346   -1.9265 O.co2     1 <0>        -0.6795
     11 S1         -0.0121   -4.6250   -0.0383 S.o2      1 <0>         2.6971
     12 O3          0.8997   -5.2787   -0.9104 O.2       1 <0>        -0.9403
     13 O4         -0.0585   -4.8942    1.3562 O.2       1 <0>        -0.9445
     14 N1         -1.5298   -4.9249   -0.6290 N.pl3     1 <0>        -0.9167
     15 N2         -1.8348   -4.6226   -1.9626 N.am      1 <0>        -0.5108
     16 C9         -2.3068   -5.5841   -2.7806 C.2       1 <0>         0.7237
     17 O5         -2.5715   -5.3217   -3.9379 O.2       1 <0>        -0.5693
     18 N3         -2.4853   -6.8365   -2.3157 N.am      1 <0>        -0.7106
     19 C10        -2.9983   -7.8817   -3.2049 C.3       1 <0>         0.0977
     20 C11        -4.0731   -8.8177   -2.6485 C.3       1 <0>        -0.1952
     21 C12        -2.6486   -9.3321   -2.8657 C.3       1 <0>        -0.1905
     22 C13        -1.6160   -2.4895    1.3731 C.3       1 <0>        -0.1619
     23 H1          0.4435    1.6864   -1.4792 H         1 <0>         0.0822
     24 H2          0.5951    1.8254    0.2889 H         1 <0>         0.0566
     25 H3          2.0353    1.4992   -0.7049 H         1 <0>         0.0770
     26 H4         -0.9060    0.0687    0.8938 H         1 <0>         0.1261
     27 H5          1.9117   -3.1541   -1.5622 H         1 <0>         0.1417
     28 H6         -2.2076   -5.3099   -0.0517 H         1 <0>         0.4196
     29 H7         -1.7063   -3.7212   -2.2971 H         1 <0>         0.4379
     30 H8         -2.2741   -7.0458   -1.3924 H         1 <0>         0.3989
     31 H9         -3.0616   -7.6126   -4.2593 H         1 <0>         0.1420
     32 H10        -4.3985   -8.6558   -1.6209 H         1 <0>         0.0961
     33 H11        -4.8438   -9.1645   -3.3368 H         1 <0>         0.1029
     34 H12        -2.4822  -10.0173   -3.6969 H         1 <0>         0.1054
     35 H13        -2.0369   -9.5086   -1.9810 H         1 <0>         0.0982
     36 H14        -2.5108   -2.6681    0.7769 H         1 <0>         0.0783
     37 H15        -1.3066   -3.4188    1.8515 H         1 <0>         0.0946
     38 H16        -1.8314   -1.7420    2.1367 H         1 <0>         0.0807
@<TRIPOS>BOND
     1    1    2 1
     2    1   23 1
     3    1   24 1
     4    1   25 1
     5    2    7 ar
     6    2    3 ar
     7    3    4 ar
     8    3   26 1
     9    4    5 ar
    10    4   22 1
    11    5    6 ar
    12    5   11 1
    13    6    7 ar
    14    6   27 1
    15    7    8 1
    16    8    9 2
    17    8   10 1
    18   11   12 2
    19   11   13 2
    20   11   14 1
    21   14   15 1
    22   14   28 1
    23   15   16 am
    24   15   29 1
    25   16   17 2
    26   16   18 am
    27   18   19 1
    28   18   30 1
    29   19   21 1
    30   19   20 1
    31   19   31 1
    32   20   21 1
    33   20   32 1
    34   20   33 1
    35   21   34 1
    36   21   35 1
    37   22   36 1
    38   22   37 1
    39   22   38 1
@<TRIPOS>MOLECULE
ZINC13252267
   42    43     0     0     0
SMALL
USER_CHARGES
5-[(3-carbamoyl-5-ethoxycarbonyl-4-methyl-2-thienyl)sulfamoyl]-2-chloro-benzoic acid
@<TRIPOS>ATOM
      1 C1          4.3885    5.6733   -0.0100 C.3       1 <0>        -0.1541
      2 C2          2.8937    5.3476    0.0024 C.3       1 <0>         0.0633
      3 O1          2.7150    3.9298   -0.0031 O.3       1 <0>        -0.3476
      4 C3          1.4456    3.4722    0.0065 C.2       1 <0>         0.5631
      5 O2          0.5160    4.2572    0.0192 O.2       1 <0>        -0.4958
      6 C4          1.1873    2.0341    0.0016 C.2       1 <0>        -0.2740
      7 C5         -0.0167    1.3814    0.0096 C.2       1 <0>         0.0441
      8 C6          0.0021   -0.0041    0.0020 C.2       1 <0>        -0.2502
      9 C7          1.2505   -0.6384   -0.0133 C.2       1 <0>         0.1350
     10 S1          2.3610    0.6924   -0.0168 S.3       1 <0>         0.2518
     11 N1          1.5272   -1.9855   -0.0232 N.pl3     1 <0>        -0.9939
     12 S2          3.0985   -2.5080   -0.0410 S.o2      1 <0>         2.6688
     13 O3          3.0546   -3.9282   -0.0211 O.2       1 <0>        -0.9189
     14 O4          3.7567   -1.7805   -1.0690 O.2       1 <0>        -0.9270
     15 C8          3.8318   -2.0055    1.4803 C.ar      1 <0>        -0.7018
     16 C9          4.4624   -0.7763    1.5698 C.ar      1 <0>        -0.0134
     17 C10         5.0366   -0.3712    2.7607 C.ar      1 <0>        -0.1428
     18 C11         4.9935   -1.1967    3.8675 C.ar      1 <0>         0.0524
     19 C12         4.3631   -2.4410    3.7821 C.ar      1 <0>        -0.1252
     20 C13         3.7810   -2.8401    2.5767 C.ar      1 <0>         0.0414
     21 C14         4.3121   -3.3292    4.9604 C.2       1 <0>         0.4855
     22 O5          4.8193   -2.9792    6.0073 O.co2     1 <0>        -0.5989
     23 Cl1         5.7200   -0.6896    5.3604 Cl        1 <0>        -0.0230
     24 C15        -1.2437   -0.7802    0.0102 C.2       1 <0>         0.5896
     25 O6         -1.7706   -1.0963   -1.0402 O.2       1 <0>        -0.5298
     26 N2         -1.8041   -1.1428    1.1811 N.am      1 <0>        -0.8434
     27 C16        -1.3167    2.1436    0.0200 C.3       1 <0>        -0.1187
     28 H1          4.8612    5.2441    0.8735 H         1 <0>         0.0690
     29 H2          4.8445    5.2531   -0.9064 H         1 <0>         0.0682
     30 H3          4.5248    6.7547   -0.0058 H         1 <0>         0.0800
     31 H4          2.4210    5.7767   -0.8810 H         1 <0>         0.0695
     32 H5          2.4376    5.7678    0.8988 H         1 <0>         0.0701
     33 H6          0.8019   -2.6297   -0.0197 H         1 <0>         0.4390
     34 H7          4.5028   -0.1290    0.7062 H         1 <0>         0.1423
     35 H8          5.5233    0.5908    2.8245 H         1 <0>         0.1441
     36 H9          3.2925   -3.8005    2.5035 H         1 <0>         0.1588
     37 H10        -1.3841   -0.8909    2.0184 H         1 <0>         0.4069
     38 H11        -2.6274   -1.6557    1.1865 H         1 <0>         0.4061
     39 H12        -1.6253    2.3217    1.0501 H         1 <0>         0.0844
     40 H13        -1.1825    3.0979   -0.4893 H         1 <0>         0.0973
     41 H14        -2.0827    1.5623   -0.4934 H         1 <0>         0.0716
     42 O7          3.7031   -4.5278    4.8745 O.co2     1 <0>        -0.7442
@<TRIPOS>BOND
     1    1    2 1
     2    1   28 1
     3    1   29 1
     4    1   30 1
     5    2    3 1
     6    2   31 1
     7    2   32 1
     8    3    4 1
     9    4    5 2
    10    4    6 1
    11    6   10 1
    12    6    7 2
    13    7    8 1
    14    7   27 1
    15    8    9 2
    16    8   24 1
    17    9   10 1
    18    9   11 1
    19   11   12 1
    20   11   33 1
    21   12   13 2
    22   12   14 2
    23   12   15 1
    24   15   20 ar
    25   15   16 ar
    26   16   17 ar
    27   16   34 1
    28   17   18 ar
    29   17   35 1
    30   18   19 ar
    31   18   23 1
    32   19   20 ar
    33   19   21 1
    34   20   36 1
    35   21   22 2
    36   21   42 1
    37   24   25 2
    38   24   26 am
    39   26   37 1
    40   26   38 1
    41   27   39 1
    42   27   40 1
    43   27   41 1
@<TRIPOS>MOLECULE
ZINC22113334
   59    60     0     0     0
SMALL
USER_CHARGES

@<TRIPOS>ATOM
      1 C1          2.2257    3.0131    0.0475 C.ar      1 <0>        -0.0957
      2 C2          3.4666    3.6124    0.0683 C.ar      1 <0>        -0.1628
      3 C3          4.5939    2.8934   -0.3070 C.ar      1 <0>         0.1598
      4 C4          4.4769    1.5675   -0.7046 C.ar      1 <0>        -0.0903
      5 C5          3.2407    0.9597   -0.7287 C.ar      1 <0>        -0.0827
      6 C6          2.1030    1.6794   -0.3517 C.ar      1 <0>        -0.0985
      7 C7          0.7787    1.0338   -0.3753 C.2       1 <0>        -0.0609
      8 C8         -0.3129    1.7271   -0.0127 C.2       1 <0>        -0.1469
      9 C9         -1.6372    1.0816   -0.0363 C.ar      1 <0>        -0.0376
     10 C10        -1.7592   -0.2542   -0.4301 C.ar      1 <0>        -0.0920
     11 C11        -2.9996   -0.8537   -0.4500 C.ar      1 <0>        -0.1382
     12 C12        -4.1279   -0.1328   -0.0801 C.ar      1 <0>         0.1025
     13 C13        -4.0118    1.1946    0.3114 C.ar      1 <0>        -0.1486
     14 C14        -2.7745    1.8011    0.3406 C.ar      1 <0>        -0.0664
     15 C15        -5.2400    1.9713    0.7106 C.3       1 <0>         0.0291
     16 N1         -5.9798    2.3706   -0.4940 N.4       1 <0>        -0.3262
     17 C16        -7.2358    3.0246   -0.1030 C.3       1 <0>        -0.0966
     18 C17        -8.0796    3.2651   -1.3282 C.2       1 <0>         0.4938
     19 O1         -7.6724    2.9234   -2.4255 O.co2     1 <0>        -0.6827
     20 O2         -9.1694    3.8013   -1.2223 O.co2     1 <0>        -0.6678
     21 C18        -5.1653    3.3058   -1.2814 C.3       1 <0>        -0.0841
     22 C19        -4.9200    4.5572   -0.4784 C.2       1 <0>         0.5012
     23 O3         -5.3095    4.6278    0.6748 O.co2     1 <0>        -0.6798
     24 O4         -4.3320    5.4992   -0.9819 O.co2     1 <0>        -0.6493
     25 O5         -5.3490   -0.7280   -0.1018 O.3       1 <0>        -0.4982
     26 C20         5.7041    0.7929   -1.1107 C.3       1 <0>         0.1053
     27 N2          6.1359    1.2248   -2.4468 N.3       1 <0>        -0.4643
     28 C21         7.4550    0.6699   -2.7787 C.3       1 <0>         0.0075
     29 C22         8.5220    1.4324   -2.0362 C.2       1 <0>         0.5045
     30 O6          8.2105    2.3352   -1.2784 O.co2     1 <0>        -0.6668
     31 O7          9.6967    1.1463   -2.1934 O.co2     1 <0>        -0.7365
     32 C23         5.1408    0.8617   -3.4646 C.3       1 <0>        -0.0099
     33 C24         5.4087    1.6377   -4.7283 C.2       1 <0>         0.4950
     34 O8          6.3437    2.4187   -4.7775 O.co2     1 <0>        -0.6635
     35 O9          4.6904    1.4847   -5.7015 O.co2     1 <0>        -0.7301
     36 O10         5.8149    3.4888   -0.2858 O.3       1 <0>        -0.4484
     37 H1          1.3501    3.5718    0.3435 H         1 <0>         0.1224
     38 H2          3.5625    4.6430    0.3767 H         1 <0>         0.1243
     39 H3          3.1507   -0.0711   -1.0383 H         1 <0>         0.1186
     40 H4          0.6858    0.0031   -0.6841 H         1 <0>         0.1178
     41 H5         -0.2200    2.7579    0.2961 H         1 <0>         0.1277
     42 H6         -0.8826   -0.8153   -0.7186 H         1 <0>         0.1345
     43 H7         -3.0949   -1.8856   -0.7541 H         1 <0>         0.1314
     44 H8         -2.6846    2.8319    0.6498 H         1 <0>         0.1406
     45 H9         -5.8766    1.3473    1.3378 H         1 <0>         0.1057
     46 H10        -4.9427    2.8609    1.2660 H         1 <0>         0.1668
     47 H11        -7.7784    2.3833    0.5917 H         1 <0>         0.1008
     48 H12        -7.0149    3.9771    0.3787 H         1 <0>         0.1665
     49 H13        -4.2115    2.8389   -1.5271 H         1 <0>         0.1079
     50 H14        -5.6922    3.5615   -2.2007 H         1 <0>         0.1444
     51 H15        -5.5921   -1.1575    0.7299 H         1 <0>         0.3880
     52 H16         6.5039    0.9769   -0.3933 H         1 <0>         0.0886
     53 H17         5.4717   -0.2718   -1.1305 H         1 <0>         0.0073
     54 H18         7.4907   -0.3803   -2.4890 H         1 <0>         0.0007
     55 H19         7.6262    0.7568   -3.8516 H         1 <0>         0.0789
     56 H20         5.2072   -0.2061   -3.6729 H         1 <0>         0.0088
     57 H21         4.1423    1.0989   -3.0973 H         1 <0>         0.0600
     58 H22         6.2808    3.4007    0.5570 H         1 <0>         0.3800
     59 H23        -6.1848    1.5534   -1.0492 H         1 <0>         0.4046
@<TRIPOS>BOND
     1    1    6 ar
     2    1    2 ar
     3    1   37 1
     4    2    3 ar
     5    2   38 1
     6    3    4 ar
     7    3   36 1
     8    4    5 ar
     9    4   26 1
    10    5    6 ar
    11    5   39 1
    12    6    7 1
    13    7    8 2
    14    7   40 1
    15    8    9 1
    16    8   41 1
    17    9   14 ar
    18    9   10 ar
    19   10   11 ar
    20   10   42 1
    21   11   12 ar
    22   11   43 1
    23   12   13 ar
    24   12   25 1
    25   13   14 ar
    26   13   15 1
    27   14   44 1
    28   15   16 1
    29   15   45 1
    30   15   46 1
    31   16   17 1
    32   16   21 1
    33   16   59 1
    34   17   18 1
    35   17   47 1
    36   17   48 1
    37   18   19 2
    38   18   20 1
    39   21   22 1
    40   21   49 1
    41   21   50 1
    42   22   23 2
    43   22   24 1
    44   25   51 1
    45   26   27 1
    46   26   52 1
    47   26   53 1
    48   27   28 1
    49   27   32 1
    50   28   29 1
    51   28   54 1
    52   28   55 1
    53   29   30 2
    54   29   31 1
    55   32   33 1
    56   32   56 1
    57   32   57 1
    58   33   34 2
    59   33   35 1
    60   36   58 1
@<TRIPOS>MOLECULE
ZINC15036537
   38    39     0     0     0
SMALL
USER_CHARGES

@<TRIPOS>ATOM
      1 C1          0.0647    1.2934   -0.6822 C.ar      1 <0>        -0.1494
      2 C2          1.2389    2.0079   -0.6179 C.ar      1 <0>        -0.0573
      3 C3          2.3920    1.4114   -0.0921 C.ar      1 <0>        -0.1322
      4 C4          2.3410    0.0834    0.3675 C.ar      1 <0>         0.1684
      5 C5          1.1537   -0.6221    0.2964 C.ar      1 <0>        -0.1782
      6 C6          0.0176   -0.0204   -0.2268 C.ar      1 <0>         0.1532
      7 O1         -1.1456   -0.7173   -0.2944 O.3       1 <0>        -0.4948
      8 O2          3.4529   -0.5038    0.8783 O.3       1 <0>        -0.4894
      9 C7          3.6459    2.1678   -0.0215 C.2       1 <0>         0.0903
     10 C8          3.6282    3.5233   -0.1172 C.2       1 <0>        -0.2359
     11 C9          4.7501    4.4710   -0.2497 C.2       1 <0>         0.5507
     12 O3          5.9061    4.0911   -0.2895 O.2       1 <0>        -0.4527
     13 N1          4.4381    5.7539   -0.3235 N.am      1 <0>        -0.5029
     14 C10         3.1561    6.1705   -0.2795 C.2       1 <0>         0.2741
     15 S1          2.5546    7.7713   -0.3599 S.2       1 <0>        -0.3253
     16 S2          2.2378    4.6469   -0.1248 S.3       1 <0>         0.0721
     17 C11         5.5089    6.7448   -0.4557 C.3       1 <0>         0.0607
     18 C12         5.7951    6.9835   -1.9159 C.2       1 <0>         0.5023
     19 O4          5.1665    6.3847   -2.7628 O.2       1 <0>        -0.5318
     20 N2          6.7497    7.8622   -2.2806 N.am      1 <0>        -0.7162
     21 C13         7.0279    8.0942   -3.7002 C.3       1 <0>         0.1418
     22 C14         8.1463    9.1292   -3.8382 C.3       1 <0>        -0.1957
     23 C15         8.4325    9.3678   -5.2984 C.2       1 <0>         0.4958
     24 O5          7.8005    8.7659   -6.1497 O.co2     1 <0>        -0.6923
     25 O6          9.2960   10.1628   -5.6283 O.co2     1 <0>        -0.7000
     26 H1         -0.8249    1.7558   -1.0837 H         1 <0>         0.1437
     27 H2          1.2715    3.0274   -0.9729 H         1 <0>         0.1442
     28 H3          1.1105   -1.6423    0.6479 H         1 <0>         0.1445
     29 H4         -1.2635   -1.2065   -1.1201 H         1 <0>         0.4001
     30 H5          3.5564   -0.3867    1.8326 H         1 <0>         0.4009
     31 H6          4.5838    1.6477    0.1064 H         1 <0>         0.1678
     32 H7          5.1986    7.6796    0.0112 H         1 <0>         0.1405
     33 H8          6.4090    6.3748    0.0353 H         1 <0>         0.1332
     34 H9          7.2524    8.3411   -1.6033 H         1 <0>         0.3982
     35 H10         7.3383    7.1595   -4.1671 H         1 <0>         0.0701
     36 H11         6.1278    8.4643   -4.1911 H         1 <0>         0.0719
     37 H12         7.8359   10.0639   -3.3713 H         1 <0>         0.0655
     38 H13         9.0464    8.7591   -3.3472 H         1 <0>         0.0643
@<TRIPOS>BOND
     1    1    6 ar
     2    1    2 ar
     3    1   26 1
     4    2    3 ar
     5    2   27 1
     6    3    4 ar
     7    3    9 1
     8    4    5 ar
     9    4    8 1
    10    5    6 ar
    11    5   28 1
    12    6    7 1
    13    7   29 1
    14    8   30 1
    15    9   10 2
    16    9   31 1
    17   10   16 1
    18   10   11 1
    19   11   12 2
    20   11   13 am
    21   13   14 1
    22   13   17 1
    23   14   15 2
    24   14   16 1
    25   17   18 1
    26   17   32 1
    27   17   33 1
    28   18   19 2
    29   18   20 am
    30   20   21 1
    31   20   34 1
    32   21   22 1
    33   21   35 1
    34   21   36 1
    35   22   23 1
    36   22   37 1
    37   22   38 1
    38   23   24 2
    39   23   25 1
@<TRIPOS>MOLECULE
ZINC11676064
   45    47     0     0     0
SMALL
USER_CHARGES

@<TRIPOS>ATOM
      1 C1         -0.0167    1.3773    0.0096 C.ar      1 <0>        -0.0744
      2 C2          1.1699    2.0872    0.0021 C.ar      1 <0>        -0.2012
      3 C3          2.3799    1.4179   -0.0130 C.ar      1 <0>        -0.1142
      4 C4          2.4064    0.0354   -0.0206 C.ar      1 <0>         0.0267
      5 C5          1.2142   -0.6807   -0.0131 C.ar      1 <0>         0.2513
      6 C6          0.0021   -0.0041    0.0020 C.ar      1 <0>        -0.2456
      7 N1          1.2364   -2.0789   -0.0212 N.2       1 <0>        -1.0813
      8 S1         -0.1844   -2.9296   -0.0122 S.o2      1 <0>         2.6029
      9 O1         -0.8037   -2.6727    1.2407 O.2       1 <0>        -1.0219
     10 O2         -0.8279   -2.6586   -1.2499 O.2       1 <0>        -1.0244
     11 C7          0.2332   -4.6414   -0.0260 C.ar      1 <0>        -0.6214
     12 C8          0.3907   -5.3039   -1.2306 C.ar      1 <0>         0.0102
     13 C9          0.7185   -6.6477   -1.2503 C.ar      1 <0>        -0.1483
     14 C10         0.8901   -7.3365   -0.0670 C.ar      1 <0>        -0.0483
     15 C11         0.7327   -6.6743    1.1513 C.ar      1 <0>        -0.1601
     16 C12         0.4079   -5.3167    1.1640 C.ar      1 <0>         0.0451
     17 C13         0.9146   -7.4061    2.4230 C.2       1 <0>         0.5694
     18 O3          0.7769   -6.8267    3.4827 O.2       1 <0>        -0.5270
     19 N2          1.2331   -8.7156    2.4073 N.am      1 <0>        -0.5222
     20 N3          1.4055   -9.4090    3.6124 N.am      1 <0>        -0.5129
     21 C14         1.7240  -10.7185    3.5967 C.2       1 <0>         0.5609
     22 O4          1.8617  -11.2979    2.5371 O.2       1 <0>        -0.5342
     23 C15         1.9059  -11.4504    4.8685 C.ar      1 <0>        -0.1097
     24 C16         1.7428  -10.7888    6.0870 C.ar      1 <0>        -0.0936
     25 C17         1.9133  -11.4748    7.2718 C.ar      1 <0>        -0.1060
     26 C18         2.2457  -12.8170    7.2570 C.ar      1 <0>        -0.1159
     27 C19         2.4105  -13.4831    6.0504 C.ar      1 <0>         0.0994
     28 C20         2.2356  -12.8057    4.8552 C.ar      1 <0>        -0.0814
     29 O5          2.7381  -14.8022    6.0419 O.3       1 <0>        -0.4948
     30 F1          3.5885   -0.6186   -0.0358 F         1 <0>        -0.1469
     31 H1         -0.9596    1.9036    0.0259 H         1 <0>         0.1090
     32 H2          1.1516    3.1670    0.0077 H         1 <0>         0.1114
     33 H3          3.3049    1.9754   -0.0192 H         1 <0>         0.1169
     34 H4         -0.9255   -0.5572    0.0082 H         1 <0>         0.1051
     35 H5          0.2567   -4.7696   -2.1596 H         1 <0>         0.1456
     36 H6          0.8399   -7.1590   -2.1938 H         1 <0>         0.1383
     37 H7          1.1453   -8.3857   -0.0837 H         1 <0>         0.1292
     38 H8          0.2894   -4.7973    2.1035 H         1 <0>         0.1532
     39 H9          1.3430   -9.1779    1.5617 H         1 <0>         0.4322
     40 H10         1.2956   -8.9467    4.4580 H         1 <0>         0.4330
     41 H11         1.4835   -9.7405    6.1021 H         1 <0>         0.1328
     42 H12         1.7872  -10.9617    8.2138 H         1 <0>         0.1385
     43 H13         2.3779  -13.3488    8.1877 H         1 <0>         0.1361
     44 H14         2.3588  -13.3240    3.9157 H         1 <0>         0.1453
     45 H15         1.9755  -15.3968    6.0400 H         1 <0>         0.3935
@<TRIPOS>BOND
     1    1    6 ar
     2    1    2 ar
     3    1   31 1
     4    2    3 ar
     5    2   32 1
     6    3    4 ar
     7    3   33 1
     8    4    5 ar
     9    4   30 1
    10    5    6 ar
    11    5    7 1
    12    6   34 1
    13    7    8 1
    14    8    9 2
    15    8   10 2
    16    8   11 1
    17   11   16 ar
    18   11   12 ar
    19   12   13 ar
    20   12   35 1
    21   13   14 ar
    22   13   36 1
    23   14   15 ar
    24   14   37 1
    25   15   16 ar
    26   15   17 1
    27   16   38 1
    28   17   18 2
    29   17   19 am
    30   19   20 1
    31   19   39 1
    32   20   21 am
    33   20   40 1
    34   21   22 2
    35   21   23 1
    36   23   28 ar
    37   23   24 ar
    38   24   25 ar
    39   24   41 1
    40   25   26 ar
    41   25   42 1
    42   26   27 ar
    43   26   43 1
    44   27   28 ar
    45   27   29 1
    46   28   44 1
    47   29   45 1
@<TRIPOS>MOLECULE
ZINC65179235
   44    44     0     0     0
SMALL
USER_CHARGES

@<TRIPOS>ATOM
      1 C1         -0.0184    1.5028    0.0103 C.3       1 <0>        -0.0892
      2 C2          0.0021   -0.0041    0.0020 C.ar      1 <0>        -0.2092
      3 C3          0.0057   -0.6868   -1.2043 C.ar      1 <0>        -0.0378
      4 C4          0.0243   -2.0661   -1.2263 C.ar      1 <0>        -0.2525
      5 C5          0.0396   -2.7812   -0.0349 C.ar      1 <0>         0.3363
      6 C6          0.0361   -2.0928    1.1881 C.ar      1 <0>        -0.2182
      7 C7          0.0228   -0.6955    1.1932 C.ar      1 <0>        -0.0383
      8 C8          0.0517   -2.8391    2.4594 C.2       1 <0>         0.5701
      9 O1          0.0677   -4.0550    2.4505 O.2       1 <0>        -0.4935
     10 N1          0.0482   -2.1738    3.6315 N.am      1 <0>        -0.5531
     11 N2          0.0630   -2.8830    4.8397 N.am      1 <0>        -0.5261
     12 C9          0.0595   -2.2177    6.0117 C.2       1 <0>         0.7112
     13 O2          0.0723   -2.8332    7.0602 O.2       1 <0>        -0.5879
     14 N3          0.0417   -0.8701    6.0216 N.am      1 <0>        -0.7460
     15 C10         0.0379   -0.1469    7.2957 C.3       1 <0>         0.1419
     16 C11         0.0168    1.3592    7.0271 C.3       1 <0>        -0.1104
     17 C12        -1.2987    1.7369    6.3434 C.3       1 <0>        -0.1505
     18 C13         0.1385    2.1152    8.3517 C.3       1 <0>        -0.1439
     19 N4          0.0580   -4.1696   -0.0544 N.2       1 <0>        -1.0397
     20 S1          0.0615   -4.9775   -1.5000 S.o2      1 <0>         2.5178
     21 O3         -1.1806   -4.6445   -2.1045 O.2       1 <0>        -1.0290
     22 O4          1.2884   -4.6118   -2.1167 O.2       1 <0>        -1.0290
     23 C14         0.0871   -6.7351   -1.0518 C.3       1 <0>        -0.6317
     24 H1          1.0042    1.8801    0.0026 H         1 <0>         0.0512
     25 H2         -0.5455    1.8639   -0.8728 H         1 <0>         0.0523
     26 H3         -0.5286    1.8543    0.9071 H         1 <0>         0.0513
     27 H4         -0.0066   -0.1355   -2.1329 H         1 <0>         0.1063
     28 H5          0.0266   -2.5906   -2.1704 H         1 <0>         0.1094
     29 H6          0.0247   -0.1583    2.1301 H         1 <0>         0.1015
     30 H7          0.0354   -1.2039    3.6386 H         1 <0>         0.4076
     31 H8          0.0757   -3.8529    4.8326 H         1 <0>         0.4414
     32 H9          0.0315   -0.3791    5.1852 H         1 <0>         0.3924
     33 H10        -0.8459   -0.4261    7.8693 H         1 <0>         0.0675
     34 H11         0.9339   -0.4026    7.8613 H         1 <0>         0.0671
     35 H12         0.8523    1.6245    6.3793 H         1 <0>         0.0781
     36 H13        -2.1342    1.4716    6.9912 H         1 <0>         0.0578
     37 H14        -1.3138    2.8099    6.1520 H         1 <0>         0.0584
     38 H15        -1.3855    1.1983    5.3997 H         1 <0>         0.0559
     39 H16         1.0758    1.8461    8.8389 H         1 <0>         0.0578
     40 H17         0.1235    3.1881    8.1604 H         1 <0>         0.0598
     41 H18        -0.6969    1.8499    8.9996 H         1 <0>         0.0580
     42 H19        -0.7970   -6.9719   -0.4597 H         1 <0>         0.1169
     43 H20         0.0906   -7.3411   -1.9578 H         1 <0>         0.1009
     44 H21         0.9828   -6.9483   -0.4685 H         1 <0>         0.1169
@<TRIPOS>BOND
     1    1    2 1
     2    1   24 1
     3    1   25 1
     4    1   26 1
     5    2    7 ar
     6    2    3 ar
     7    3    4 ar
     8    3   27 1
     9    4    5 ar
    10    4   28 1
    11    5    6 ar
    12    5   19 1
    13    6    7 ar
    14    6    8 1
    15    7   29 1
    16    8    9 2
    17    8   10 am
    18   10   11 1
    19   10   30 1
    20   11   12 am
    21   11   31 1
    22   12   13 2
    23   12   14 am
    24   14   15 1
    25   14   32 1
    26   15   16 1
    27   15   33 1
    28   15   34 1
    29   16   17 1
    30   16   18 1
    31   16   35 1
    32   17   36 1
    33   17   37 1
    34   17   38 1
    35   18   39 1
    36   18   40 1
    37   18   41 1
    38   19   20 1
    39   20   21 2
    40   20   22 2
    41   20   23 1
    42   23   42 1
    43   23   43 1
    44   23   44 1
@<TRIPOS>MOLECULE
ZINC06827962
   42    43     0     0     0
SMALL
USER_CHARGES
2-[[4-(isopropylsulfamoyl)phenyl]carbamoyl]benzoic acid
@<TRIPOS>ATOM
      1 C1          0.4443    5.6188   -2.3555 C.3       1 <0>        -0.1724
      2 C2         -0.5042    4.8201   -1.4592 C.3       1 <0>         0.1447
      3 C3         -1.8929    4.7734   -2.0998 C.3       1 <0>        -0.1604
      4 N1          0.0065    3.4562   -1.3005 N.pl3     1 <0>        -1.1133
      5 S1          0.9383    3.0685    0.0124 S.o2      1 <0>         2.6986
      6 O1          1.2503    1.6871   -0.1047 O.2       1 <0>        -0.9671
      7 O2          1.9413    4.0705    0.1087 O.2       1 <0>        -0.9602
      8 C4         -0.0793    3.2356    1.4411 C.ar      1 <0>        -0.7075
      9 C5         -0.1408    4.4463    2.1065 C.ar      1 <0>        -0.0013
     10 C6         -0.9412    4.5820    3.2238 C.ar      1 <0>        -0.1461
     11 C7         -1.6766    3.4978    3.6852 C.ar      1 <0>         0.2333
     12 C8         -1.6084    2.2817    3.0176 C.ar      1 <0>        -0.1744
     13 C9         -0.8102    2.1542    1.8978 C.ar      1 <0>         0.0034
     14 N2         -2.4841    3.6304    4.8189 N.am      1 <0>        -0.6802
     15 C10        -3.0989    4.8021    5.0751 C.2       1 <0>         0.5744
     16 O3         -3.0292    5.7131    4.2734 O.2       1 <0>        -0.4607
     17 C11        -3.8584    4.9796    6.3319 C.ar      1 <0>        -0.1094
     18 C12        -3.2483    4.7354    7.5592 C.ar      1 <0>        -0.1078
     19 C13        -3.9605    4.9077    8.7313 C.ar      1 <0>        -0.1297
     20 C14        -5.2832    5.3123    8.6942 C.ar      1 <0>        -0.1155
     21 C15        -5.9071    5.5539    7.4849 C.ar      1 <0>        -0.0833
     22 C16        -5.2040    5.3907    6.2940 C.ar      1 <0>        -0.0661
     23 C17        -5.8669    5.6473    4.9978 C.2       1 <0>         0.4802
     24 O4         -5.2884    5.3967    3.9597 O.co2     1 <0>        -0.6011
     25 H1          0.0643    6.6335   -2.4736 H         1 <0>         0.0679
     26 H2          1.4336    5.6521   -1.8992 H         1 <0>         0.0701
     27 H3          0.5107    5.1397   -3.3323 H         1 <0>         0.0595
     28 H4         -0.5706    5.2992   -0.4824 H         1 <0>         0.0861
     29 H5         -2.5686    4.2044   -1.4612 H         1 <0>         0.0657
     30 H6         -2.2729    5.7881   -2.2179 H         1 <0>         0.0718
     31 H7         -1.8265    4.2943   -3.0766 H         1 <0>         0.0608
     32 H8         -0.2012    2.7802   -1.9645 H         1 <0>         0.4165
     33 H9          0.4347    5.2877    1.7498 H         1 <0>         0.1400
     34 H10        -0.9922    5.5291    3.7404 H         1 <0>         0.1439
     35 H11        -2.1793    1.4368    3.3736 H         1 <0>         0.1347
     36 H12        -0.7570    1.2090    1.3781 H         1 <0>         0.1401
     37 H13        -2.6019    2.8791    5.4211 H         1 <0>         0.4105
     38 H14        -2.2176    4.4151    7.5957 H         1 <0>         0.1220
     39 H15        -3.4827    4.7214    9.6818 H         1 <0>         0.1223
     40 H16        -5.8315    5.4398    9.6159 H         1 <0>         0.1226
     41 H17        -6.9400    5.8687    7.4635 H         1 <0>         0.1381
     42 O5         -7.1126    6.1590    4.9681 O.co2     1 <0>        -0.7509
@<TRIPOS>BOND
     1    1    2 1
     2    1   25 1
     3    1   26 1
     4    1   27 1
     5    2    3 1
     6    2    4 1
     7    2   28 1
     8    3   29 1
     9    3   30 1
    10    3   31 1
    11    4    5 1
    12    4   32 1
    13    5    6 2
    14    5    7 2
    15    5    8 1
    16    8   13 ar
    17    8    9 ar
    18    9   10 ar
    19    9   33 1
    20   10   11 ar
    21   10   34 1
    22   11   12 ar
    23   11   14 1
    24   12   13 ar
    25   12   35 1
    26   13   36 1
    27   14   15 am
    28   14   37 1
    29   15   16 2
    30   15   17 1
    31   17   22 ar
    32   17   18 ar
    33   18   19 ar
    34   18   38 1
    35   19   20 ar
    36   19   39 1
    37   20   21 ar
    38   20   40 1
    39   21   22 ar
    40   21   41 1
    41   22   23 1
    42   23   24 2
    43   23   42 1
@<TRIPOS>MOLECULE
ZINC17090154
   40    41     0     0     0
SMALL
USER_CHARGES
2-[2-[[4-[(4-chlorophenyl)sulfamoyl]phenyl]amino]-2-oxo-ethyl]sulfanylacetic acid
@<TRIPOS>ATOM
      1 C1         -1.2506    3.0175   -0.2129 C.ar      1 <0>        -0.1433
      2 C2         -2.4162    3.7562   -0.1539 C.ar      1 <0>         0.0082
      3 C3         -3.6408    3.1156   -0.1070 C.ar      1 <0>        -0.6994
      4 C4         -3.7030    1.7343   -0.1247 C.ar      1 <0>         0.0024
      5 C5         -2.5414    0.9900   -0.1899 C.ar      1 <0>        -0.1711
      6 C6         -1.3100    1.6303   -0.2371 C.ar      1 <0>         0.2183
      7 N1         -0.1313    0.8791   -0.3032 N.am      1 <0>        -0.6794
      8 C7          0.9309    1.3506   -0.9857 C.2       1 <0>         0.5345
      9 O1          0.8358    2.3800   -1.6201 O.2       1 <0>        -0.4803
     10 C8          2.2367    0.5989   -0.9607 C.3       1 <0>        -0.1572
     11 S1          3.4615    1.4807   -1.9672 S.3       1 <0>        -0.1329
     12 C9          4.9553    0.4602   -1.8344 C.3       1 <0>        -0.1428
     13 C10         6.0659    1.0888   -2.6360 C.2       1 <0>         0.4800
     14 O2          5.8698    2.1194   -3.2354 O.co2     1 <0>        -0.6121
     15 S2         -5.1251    4.0615   -0.0238 S.o2      1 <0>         2.6914
     16 O3         -4.8533    5.3007   -0.6640 O.2       1 <0>        -0.9456
     17 O4         -6.1777    3.2030   -0.4413 O.2       1 <0>        -0.9539
     18 N2         -5.3987    4.4038    1.5731 N.pl3     1 <0>        -1.0642
     19 C11        -4.5061    5.2173    2.2762 C.ar      1 <0>         0.1265
     20 C12        -3.6334    4.6567    3.1999 C.ar      1 <0>        -0.0982
     21 C13        -2.7481    5.4623    3.8888 C.ar      1 <0>        -0.1036
     22 C14        -2.7385    6.8285    3.6685 C.ar      1 <0>        -0.0269
     23 C15        -3.6109    7.3905    2.7531 C.ar      1 <0>        -0.1015
     24 C16        -4.4941    6.5888    2.0568 C.ar      1 <0>        -0.0917
     25 Cl1        -1.6297    7.8391    4.5419 Cl        1 <0>        -0.0624
     26 H1         -0.2943    3.5183   -0.2447 H         1 <0>         0.1477
     27 H2         -2.3709    4.8351   -0.1399 H         1 <0>         0.1408
     28 H3         -4.6610    1.2370   -0.0880 H         1 <0>         0.1443
     29 H4         -2.5907   -0.0888   -0.2044 H         1 <0>         0.1372
     30 H5         -0.0801    0.0172    0.1389 H         1 <0>         0.4155
     31 H6          2.5947    0.5265    0.0663 H         1 <0>         0.1088
     32 H7          2.0874   -0.4023   -1.3649 H         1 <0>         0.1076
     33 H8          5.2562    0.3907   -0.7891 H         1 <0>         0.0832
     34 H9          4.7489   -0.5381   -2.2202 H         1 <0>         0.0832
     35 H10        -6.1785    4.0396    2.0205 H         1 <0>         0.4264
     36 H11        -3.6440    3.5912    3.3759 H         1 <0>         0.1391
     37 H12        -2.0657    5.0263    4.6033 H         1 <0>         0.1401
     38 H13        -3.6008    8.4569    2.5826 H         1 <0>         0.1421
     39 H14        -5.1744    7.0279    1.3422 H         1 <0>         0.1456
     40 O5          7.2730    0.5037   -2.6841 O.co2     1 <0>        -0.7565
@<TRIPOS>BOND
     1    1    6 ar
     2    1    2 ar
     3    1   26 1
     4    2    3 ar
     5    2   27 1
     6    3    4 ar
     7    3   15 1
     8    4    5 ar
     9    4   28 1
    10    5    6 ar
    11    5   29 1
    12    6    7 1
    13    7    8 am
    14    7   30 1
    15    8    9 2
    16    8   10 1
    17   10   11 1
    18   10   31 1
    19   10   32 1
    20   11   12 1
    21   12   13 1
    22   12   33 1
    23   12   34 1
    24   13   14 2
    25   13   40 1
    26   15   16 2
    27   15   17 2
    28   15   18 1
    29   18   19 1
    30   18   35 1
    31   19   24 ar
    32   19   20 ar
    33   20   21 ar
    34   20   36 1
    35   21   22 ar
    36   21   37 1
    37   22   23 ar
    38   22   25 1
    39   23   24 ar
    40   23   38 1
    41   24   39 1
@<TRIPOS>MOLECULE
ZINC38979013
   42    44     0     0     0
SMALL
USER_CHARGES

@<TRIPOS>ATOM
      1 C1         -0.0187    1.5258    0.0104 C.3       1 <0>        -0.1350
      2 C2          0.0021   -0.0041    0.0020 C.3       1 <0>         0.1155
      3 C3         -1.4415   -0.5317   -0.0133 C.3       1 <0>        -0.1003
      4 C4         -1.3419   -2.0382    0.2201 C.2       1 <0>        -0.0242
      5 C5         -1.8964   -2.9746   -0.5430 C.2       1 <0>        -0.2506
      6 C6         -1.5077   -4.3927   -0.3069 C.2       1 <0>         0.2267
      7 N1         -1.9598   -5.3766   -1.0419 N.2       1 <0>        -0.4456
      8 C7         -2.8081   -5.0738   -2.0358 C.2       1 <0>         0.5165
      9 N2         -3.2208   -3.8590   -2.3358 N.2       1 <0>        -0.7396
     10 C8         -2.8440   -2.7473   -1.6862 C.2       1 <0>         0.5674
     11 O1         -3.2404   -1.6372   -1.9997 O.2       1 <0>        -0.5384
     12 N3         -3.2837   -6.1115   -2.8012 N.2       1 <0>        -0.3979
     13 N4         -4.1727   -5.8558   -3.8534 N.pl3     1 <0>        -0.4784
     14 C9         -4.6390   -6.8735   -4.6040 C.2       1 <0>         0.5926
     15 S1         -5.7253   -6.5610   -5.8898 S.2       1 <0>        -0.7146
     16 N5         -4.2501   -8.1371   -4.3424 N.pl3     1 <0>        -0.6784
     17 C10        -4.7569   -9.2433   -5.1583 C.3       1 <0>         0.1546
     18 C11        -4.1735  -10.5414   -4.6627 C.2       1 <0>        -0.1722
     19 C12        -4.9653  -11.5290   -4.3255 C.2       1 <0>        -0.1691
     20 S2         -0.4164   -4.3352    1.0797 S.3       1 <0>        -0.0448
     21 C13        -0.5097   -2.5337    1.4067 C.3       1 <0>        -0.0885
     22 H1         -0.9757   -2.3098    2.3663 H         1 <0>         0.1472
     23 C14         0.8713   -1.8900    1.2538 C.3       1 <0>         0.0851
     24 O2          0.6921   -0.4722    1.1580 O.3       1 <0>        -0.3677
     25 C15         0.7280   -0.4930   -1.2529 C.3       1 <0>        -0.1813
     26 H2          1.0039    1.9031    0.0027 H         1 <0>         0.0656
     27 H3         -0.5459    1.8868   -0.8726 H         1 <0>         0.0760
     28 H4         -0.5289    1.8773    0.9072 H         1 <0>         0.0656
     29 H5         -2.0198   -0.0658    0.7846 H         1 <0>         0.0935
     30 H6         -1.9040   -0.3314   -0.9798 H         1 <0>         0.1195
     31 H7         -4.4526   -4.9464   -4.0417 H         1 <0>         0.4196
     32 H8         -3.6345   -8.3141   -3.6139 H         1 <0>         0.4104
     33 H9         -5.8437   -9.2815   -5.0837 H         1 <0>         0.0839
     34 H10        -4.4693   -9.0892   -6.1983 H         1 <0>         0.0883
     35 H11        -3.1025  -10.6575   -4.5856 H         1 <0>         0.1138
     36 H12        -6.0363  -11.4129   -4.4025 H         1 <0>         0.1010
     37 H13        -4.5472  -12.4593   -3.9703 H         1 <0>         0.1012
     38 H14         1.4856   -2.1256    2.1229 H         1 <0>         0.1122
     39 H15         1.3531   -2.2622    0.3497 H         1 <0>         0.0727
     40 H16         1.7501   -0.1142   -1.2522 H         1 <0>         0.0663
     41 H17         0.7444   -1.5829   -1.2617 H         1 <0>         0.0584
     42 H18         0.2067   -0.1303   -2.1388 H         1 <0>         0.0732
@<TRIPOS>BOND
     1    1    2 1
     2    1   26 1
     3    1   27 1
     4    1   28 1
     5    2   24 1
     6    2    3 1
     7    2   25 1
     8    3    4 1
     9    3   29 1
    10    3   30 1
    11    4   21 1
    12    4    5 2
    13    5   10 1
    14    5    6 1
    15    6    7 2
    16    6   20 1
    17    7    8 1
    18    8    9 2
    19    8   12 1
    20    9   10 1
    21   10   11 2
    22   12   13 1
    23   13   14 1
    24   13   31 1
    25   14   15 2
    26   14   16 1
    27   16   17 1
    28   16   32 1
    29   17   18 1
    30   17   33 1
    31   17   34 1
    32   18   19 2
    33   18   35 1
    34   19   36 1
    35   19   37 1
    36   20   21 1
    37   21   22 1
    38   21   23 1
    39   23   24 1
    40   23   38 1
    41   23   39 1
    42   25   40 1
    43   25   41 1
    44   25   42 1
@<TRIPOS>MOLECULE
ZINC51336666
   78    81     0     0     0
SMALL
USER_CHARGES

@<TRIPOS>ATOM
      1 C1         -0.0187    1.5258    0.0104 C.3       1 <0>        -0.1482
      2 C2          0.0021   -0.0041    0.0020 C.3       1 <0>        -0.1177
      3 C3          0.7182   -0.4975   -1.2568 C.3       1 <0>        -0.0779
      4 H1          0.2444   -0.0644   -2.1377 H         1 <0>         0.0582
      5 C4          2.1873   -0.0730   -1.2073 C.3       1 <0>        -0.1440
      6 C5          0.6303   -2.0233   -1.3286 C.3       1 <0>         0.0766
      7 H2         -0.4163   -2.3257   -1.3639 H         1 <0>         0.0802
      8 C6          1.2854   -2.6220   -0.1106 C.2       1 <0>         0.4970
      9 O1          0.7601   -2.5056    0.9834 O.co2     1 <0>        -0.6922
     10 O2          2.3407   -3.2229   -0.2194 O.co2     1 <0>        -0.6888
     11 N1          1.3160   -2.4957   -2.5339 N.am      1 <0>        -0.6908
     12 C7          0.9706   -3.6751   -3.0872 C.2       1 <0>         0.5169
     13 O3          0.0921   -4.3453   -2.5873 O.2       1 <0>        -0.5327
     14 C8          1.6760   -4.1611   -4.3271 C.3       1 <0>         0.0613
     15 O4          1.1361   -5.4253   -4.7177 O.3       1 <0>        -0.2069
     16 N2          1.7335   -5.9727   -5.8789 N.2       1 <0>        -0.3402
     17 C9          1.3320   -7.1164   -6.3362 C.2       1 <0>         0.1671
     18 C10         0.2034   -7.8826   -5.6751 C.3       1 <0>        -0.1163
     19 C11         0.6295   -9.3431   -5.5509 C.3       1 <0>        -0.1091
     20 C12         1.0211   -9.9521   -6.8864 C.3       1 <0>        -0.0157
     21 C13         1.8485  -11.2185   -6.6568 C.3       1 <0>        -0.0618
     22 H3          1.2309  -11.9612   -6.1433 H         1 <0>         0.0749
     23 C14         3.0763  -10.9070   -5.7967 C.3       1 <0>        -0.1211
     24 C15         3.7672  -12.2188   -5.4471 C.3       1 <0>        -0.1042
     25 C16         4.1293  -13.0763   -6.6282 C.3       1 <0>        -0.0340
     26 C17         3.0908  -13.1132   -7.7518 C.3       1 <0>        -0.0681
     27 H4          2.3621  -13.9324   -7.5635 H         1 <0>         0.0767
     28 C18         2.3395  -11.8065   -7.9767 C.3       1 <0>        -0.0701
     29 H5          1.4608  -12.0379   -8.6026 H         1 <0>         0.0686
     30 C19         3.1966  -10.7957   -8.7327 C.3       1 <0>        -0.1201
     31 C20         2.3513   -9.5637   -9.0760 C.3       1 <0>        -0.0907
     32 C21         1.7600   -9.0145   -7.7910 C.2       1 <0>        -0.0512
     33 C22         1.9243   -7.7227   -7.5395 C.2       1 <0>        -0.1202
     34 C23         3.9159  -13.4244   -9.0286 C.3       1 <0>        -0.1177
     35 C24         5.2866  -12.7656   -8.7792 C.3       1 <0>        -0.1523
     36 C25         5.4965  -12.7989   -7.2513 C.3       1 <0>         0.1425
     37 C26         6.1213  -11.4907   -6.7765 C.3       1 <0>        -0.1789
     38 O5          6.3875  -13.8829   -6.9308 O.3       1 <0>        -0.5605
     39 C27         4.2080  -14.5279   -6.0752 C.3       1 <0>        -0.1304
     40 C28        -0.2805  -10.3576   -7.5897 C.3       1 <0>        -0.1435
     41 H6          1.0039    1.9031    0.0027 H         1 <0>         0.0512
     42 H7         -0.5459    1.8868   -0.8726 H         1 <0>         0.0437
     43 H8         -0.5289    1.8773    0.9072 H         1 <0>         0.0484
     44 H9          0.5293   -0.3651    0.8851 H         1 <0>         0.0920
     45 H10        -1.0205   -0.3814    0.0098 H         1 <0>         0.0571
     46 H11         2.6611   -0.5061   -0.3263 H         1 <0>         0.0656
     47 H12         2.6975   -0.4246   -2.1040 H         1 <0>         0.0447
     48 H13         2.2499    1.0140   -1.1561 H         1 <0>         0.0505
     49 H14         2.0187   -1.9597   -2.9338 H         1 <0>         0.3912
     50 H15         1.5331   -3.4406   -5.1324 H         1 <0>         0.0794
     51 H16         2.7408   -4.2690   -4.1206 H         1 <0>         0.0851
     52 H17         0.0162   -7.4699   -4.6803 H         1 <0>         0.0917
     53 H18        -0.7021   -7.8015   -6.2755 H         1 <0>         0.0852
     54 H19         1.4601   -9.4031   -4.8539 H         1 <0>         0.0736
     55 H20        -0.2083   -9.9167   -5.1429 H         1 <0>         0.0730
     56 H21         3.7490  -10.2418   -6.3315 H         1 <0>         0.0699
     57 H22         2.7685  -10.4205   -4.8670 H         1 <0>         0.0678
     58 H23         4.6303  -12.0329   -4.8128 H         1 <0>         0.0666
     59 H24         3.0618  -12.8022   -4.8236 H         1 <0>         0.0570
     60 H25         4.0445  -10.4841   -8.1291 H         1 <0>         0.0735
     61 H26         3.5550  -11.2326   -9.6671 H         1 <0>         0.0718
     62 H27         2.9850   -8.8077   -9.5400 H         1 <0>         0.0726
     63 H28         1.5561   -9.8450   -9.7636 H         1 <0>         0.0779
     64 H29         2.4978   -7.1111   -8.2232 H         1 <0>         0.1276
     65 H30         4.0340  -14.5057   -9.1528 H         1 <0>         0.0613
     66 H31         3.4381  -13.0108   -9.9163 H         1 <0>         0.0702
     67 H32         6.0732  -13.3410   -9.2723 H         1 <0>         0.0646
     68 H33         5.2994  -11.7410   -9.1411 H         1 <0>         0.0779
     69 H34         6.2537  -11.5227   -5.6950 H         1 <0>         0.0662
     70 H35         7.0902  -11.3552   -7.2572 H         1 <0>         0.0557
     71 H36         5.4666  -10.6594   -7.0379 H         1 <0>         0.0727
     72 H37         7.2784  -13.7797   -7.2923 H         1 <0>         0.3672
     73 H38         3.2381  -14.8151   -5.6693 H         1 <0>         0.0433
     74 H39         4.4810  -15.2093   -6.8810 H         1 <0>         0.0557
     75 H40         4.9603  -14.5764   -5.2879 H         1 <0>         0.0577
     76 H41        -0.9046   -9.4759   -7.7354 H         1 <0>         0.0575
     77 H42        -0.0474  -10.8017   -8.5574 H         1 <0>         0.0583
     78 H43        -0.8143  -11.0832   -6.9759 H         1 <0>         0.0597
@<TRIPOS>BOND
     1    1    2 1
     2    1   41 1
     3    1   42 1
     4    1   43 1
     5    2    3 1
     6    2   44 1
     7    2   45 1
     8    3    4 1
     9    3    5 1
    10    3    6 1
    11    5   46 1
    12    5   47 1
    13    5   48 1
    14    6    7 1
    15    6    8 1
    16    6   11 1
    17    8    9 2
    18    8   10 1
    19   11   12 am
    20   11   49 1
    21   12   13 2
    22   12   14 1
    23   14   15 1
    24   14   50 1
    25   14   51 1
    26   15   16 1
    27   16   17 2
    28   17   33 1
    29   17   18 1
    30   18   19 1
    31   18   52 1
    32   18   53 1
    33   19   20 1
    34   19   54 1
    35   19   55 1
    36   20   32 1
    37   20   21 1
    38   20   40 1
    39   21   22 1
    40   21   28 1
    41   21   23 1
    42   23   24 1
    43   23   56 1
    44   23   57 1
    45   24   25 1
    46   24   58 1
    47   24   59 1
    48   25   36 1
    49   25   26 1
    50   25   39 1
    51   26   27 1
    52   26   28 1
    53   26   34 1
    54   28   29 1
    55   28   30 1
    56   30   31 1
    57   30   60 1
    58   30   61 1
    59   31   32 1
    60   31   62 1
    61   31   63 1
    62   32   33 2
    63   33   64 1
    64   34   35 1
    65   34   65 1
    66   34   66 1
    67   35   36 1
    68   35   67 1
    69   35   68 1
    70   36   37 1
    71   36   38 1
    72   37   69 1
    73   37   70 1
    74   37   71 1
    75   38   72 1
    76   39   73 1
    77   39   74 1
    78   39   75 1
    79   40   76 1
    80   40   77 1
    81   40   78 1
@<TRIPOS>MOLECULE
ZINC63712231
   46    47     0     0     0
SMALL
USER_CHARGES

@<TRIPOS>ATOM
      1 C1          0.2499    1.5250    0.1591 C.3       1 <0>        -0.1421
      2 C2          0.3202   -0.0034    0.1707 C.3       1 <0>        -0.1174
      3 C3          0.8663   -0.4991   -1.1697 C.3       1 <0>        -0.5980
      4 S1          0.9496   -2.3111   -1.1559 S.o2      1 <0>         2.5253
      5 O1          1.9383   -2.7486   -0.2337 O.2       1 <0>        -1.0292
      6 O2         -0.3604   -2.8611   -1.1286 O.2       1 <0>        -1.0280
      7 N1          1.5491   -2.7210   -2.6442 N.2       1 <0>        -1.1000
      8 C4          1.7432   -4.0666   -2.9737 C.ar      1 <0>         0.2795
      9 C5          1.4279   -5.0591   -2.0547 C.ar      1 <0>        -0.2443
     10 C6          1.6196   -6.3871   -2.3801 C.ar      1 <0>        -0.0545
     11 C7          2.1281   -6.7304   -3.6257 C.ar      1 <0>         0.0128
     12 C8          2.4438   -5.7382   -4.5444 C.ar      1 <0>        -0.0915
     13 C9          2.2460   -4.4105   -4.2219 C.ar      1 <0>        -0.1729
     14 N2          2.3230   -8.0785   -3.9557 N.am      1 <0>        -0.6485
     15 C10         1.4872   -9.0184   -3.4716 C.2       1 <0>         0.4962
     16 O3          0.5116   -8.6901   -2.8299 O.2       1 <0>        -0.5267
     17 C11         1.7646  -10.4774   -3.7276 C.3       1 <0>         0.1022
     18 N3          0.7185  -11.2904   -3.1023 N.am      1 <0>        -0.7115
     19 C12         0.7599  -12.6339   -3.2011 C.2       1 <0>         0.5615
     20 O4          1.6651  -13.1710   -3.8091 O.2       1 <0>        -0.5408
     21 C13        -0.2957  -13.4544   -2.5701 C.ar      1 <0>        -0.1342
     22 C14        -1.3397  -12.8406   -1.8762 C.ar      1 <0>        -0.0834
     23 C15        -2.3218  -13.6120   -1.2900 C.ar      1 <0>        -0.1268
     24 C16        -2.2733  -14.9912   -1.3885 C.ar      1 <0>        -0.0948
     25 C17        -1.2409  -15.6060   -2.0745 C.ar      1 <0>        -0.1307
     26 C18        -0.2559  -14.8460   -2.6705 C.ar      1 <0>        -0.0600
     27 H1          1.2479    1.9334   -0.0001 H         1 <0>         0.0556
     28 H2         -0.4091    1.8523   -0.6452 H         1 <0>         0.0556
     29 H3         -0.1392    1.8781    1.1140 H         1 <0>         0.0548
     30 H4          0.9791   -0.3306    0.9749 H         1 <0>         0.0713
     31 H5         -0.6778   -0.4118    0.3299 H         1 <0>         0.0714
     32 H6          0.2073   -0.1718   -1.9739 H         1 <0>         0.1192
     33 H7          1.8643   -0.0907   -1.3289 H         1 <0>         0.1192
     34 H8          1.0331   -4.7921   -1.0856 H         1 <0>         0.1038
     35 H9          1.3744   -7.1589   -1.6656 H         1 <0>         0.1135
     36 H10         2.8399   -6.0054   -5.5129 H         1 <0>         0.1080
     37 H11         2.4867   -3.6390   -4.9383 H         1 <0>         0.1158
     38 H12         3.0596   -8.3350   -4.5324 H         1 <0>         0.4029
     39 H13         1.7749  -10.6622   -4.8018 H         1 <0>         0.1000
     40 H14         2.7331  -10.7429   -3.3039 H         1 <0>         0.1010
     41 H15        -0.0038  -10.8618   -2.6171 H         1 <0>         0.4130
     42 H16        -1.3783  -11.7641   -1.7980 H         1 <0>         0.1305
     43 H17        -3.1301  -13.1383   -0.7528 H         1 <0>         0.1303
     44 H18        -3.0444  -15.5906   -0.9275 H         1 <0>         0.1266
     45 H19        -1.2087  -16.6831   -2.1474 H         1 <0>         0.1292
     46 H20         0.5468  -15.3269   -3.2099 H         1 <0>         0.1361
@<TRIPOS>BOND
     1    1    2 1
     2    1   27 1
     3    1   28 1
     4    1   29 1
     5    2    3 1
     6    2   30 1
     7    2   31 1
     8    3    4 1
     9    3   32 1
    10    3   33 1
    11    4    5 2
    12    4    6 2
    13    4    7 1
    14    7    8 1
    15    8   13 ar
    16    8    9 ar
    17    9   10 ar
    18    9   34 1
    19   10   11 ar
    20   10   35 1
    21   11   12 ar
    22   11   14 1
    23   12   13 ar
    24   12   36 1
    25   13   37 1
    26   14   15 am
    27   14   38 1
    28   15   16 2
    29   15   17 1
    30   17   18 1
    31   17   39 1
    32   17   40 1
    33   18   19 am
    34   18   41 1
    35   19   20 2
    36   19   21 1
    37   21   26 ar
    38   21   22 ar
    39   22   23 ar
    40   22   42 1
    41   23   24 ar
    42   23   43 1
    43   24   25 ar
    44   24   44 1
    45   25   26 ar
    46   25   45 1
    47   26   46 1
@<TRIPOS>MOLECULE
ZINC01869447
   52    55     0     0     0
SMALL
USER_CHARGES
2-[4-[[1-(4-amino-1,2,5-oxadiazol-3-yl)-5-(3-methoxyphenyl)-triazol-4-yl]carbonylaminoiminomethyl]phenoxy]acetic acid
@<TRIPOS>ATOM
      1 C1          2.3074   -0.3103   -0.0216 C.3       1 <0>         0.0260
      2 O1          2.3664    1.1175   -0.0145 O.3       1 <0>        -0.3096
      3 C2          1.1821    1.7839    0.0004 C.ar      1 <0>         0.1234
      4 C3         -0.0126    1.0758    0.0080 C.ar      1 <0>        -0.1721
      5 C4         -1.2206    1.7481    0.0174 C.ar      1 <0>        -0.0844
      6 C5         -1.2474    3.1277    0.0308 C.ar      1 <0>        -0.0942
      7 C6         -0.0514    3.8484    0.0228 C.ar      1 <0>        -0.0436
      8 C7          1.1672    3.1681    0.0075 C.ar      1 <0>        -0.0583
      9 C8         -0.0759    5.3253    0.0299 C.2       1 <0>         0.2144
     10 C9          0.7044    6.1697    0.8120 C.2       1 <0>        -0.0741
     11 N1          0.3749    7.4373    0.5148 N.2       1 <0>        -0.1639
     12 N2         -0.5437    7.4554   -0.3852 N.2       1 <0>        -0.0429
     13 N3         -0.8655    6.1367   -0.7348 N.pl3     1 <0>        -0.3084
     14 C10        -1.8118    5.7306   -1.6806 C.2       1 <0>         0.2898
     15 C11        -2.6499    6.6186   -2.4917 C.2       1 <0>         0.3589
     16 N4         -3.4067    5.8819   -3.2576 N.2       1 <0>        -0.3360
     17 O2         -3.1053    4.5240   -2.9884 O.3       1 <0>         0.0523
     18 N5         -2.0952    4.4982   -1.9955 N.2       1 <0>        -0.2440
     19 N6         -2.6404    8.0083   -2.4511 N.pl3     1 <0>        -0.8022
     20 C12         1.7157    5.7477    1.7947 C.2       1 <0>         0.6206
     21 O3          1.9282    4.5639    1.9789 O.2       1 <0>        -0.4759
     22 N7          2.4063    6.6725    2.4905 N.am      1 <0>        -0.5693
     23 N8          3.3689    6.2708    3.4258 N.2       1 <0>        -0.2449
     24 C13         4.0341    7.1616    4.0960 C.2       1 <0>         0.1423
     25 C14         5.0469    6.7389    5.0802 C.ar      1 <0>        -0.1256
     26 C15         5.2886    5.3798    5.2976 C.ar      1 <0>        -0.0280
     27 C16         6.2394    4.9894    6.2154 C.ar      1 <0>        -0.2248
     28 C17         6.9503    5.9443    6.9310 C.ar      1 <0>         0.1653
     29 C18         6.7097    7.2963    6.7221 C.ar      1 <0>        -0.1668
     30 C19         5.7642    7.6961    5.8028 C.ar      1 <0>        -0.0439
     31 O4          7.8833    5.5548    7.8383 O.3       1 <0>        -0.2832
     32 C20         8.0804    4.1492    8.0036 C.3       1 <0>         0.0153
     33 C21         9.1451    3.9099    9.0430 C.2       1 <0>         0.4691
     34 O5          9.6801    4.8471    9.5865 O.co2     1 <0>        -0.6138
     35 H1          1.7706   -0.6474   -0.9084 H         1 <0>         0.0553
     36 H2          3.3192   -0.7157   -0.0335 H         1 <0>         0.1032
     37 H3          1.7876   -0.6569    0.8715 H         1 <0>         0.0579
     38 H4          0.0021   -0.0041    0.0020 H         1 <0>         0.1352
     39 H5         -2.1463    1.1917    0.0184 H         1 <0>         0.1343
     40 H6         -2.1927    3.6497    0.0426 H         1 <0>         0.1204
     41 H7          2.0956    3.7198    0.0016 H         1 <0>         0.1425
     42 H8         -2.0406    8.4718   -1.8459 H         1 <0>         0.4288
     43 H9         -3.2337    8.5144   -3.0280 H         1 <0>         0.4229
     44 H10         2.2369    7.6163    2.3437 H         1 <0>         0.3906
     45 H11         3.8455    8.2123    3.9325 H         1 <0>         0.1193
     46 H12         4.7337    4.6366    4.7443 H         1 <0>         0.1348
     47 H13         6.4298    3.9393    6.3811 H         1 <0>         0.1341
     48 H14         7.2643    8.0353    7.2813 H         1 <0>         0.1360
     49 H15         5.5776    8.7475    5.6413 H         1 <0>         0.1314
     50 H16         7.1474    3.6869    8.3260 H         1 <0>         0.0698
     51 H17         8.3937    3.7123    7.0554 H         1 <0>         0.0699
     52 O6          9.4989    2.6558    9.3649 O.co2     1 <0>        -0.7537
@<TRIPOS>BOND
     1    1    2 1
     2    1   35 1
     3    1   36 1
     4    1   37 1
     5    2    3 1
     6    3    8 ar
     7    3    4 ar
     8    4    5 ar
     9    4   38 1
    10    5    6 ar
    11    5   39 1
    12    6    7 ar
    13    6   40 1
    14    7    8 ar
    15    7    9 1
    16    8   41 1
    17    9   13 1
    18    9   10 2
    19   10   11 1
    20   10   20 1
    21   11   12 2
    22   12   13 1
    23   13   14 1
    24   14   18 2
    25   14   15 1
    26   15   16 2
    27   15   19 1
    28   16   17 1
    29   17   18 1
    30   19   42 1
    31   19   43 1
    32   20   21 2
    33   20   22 am
    34   22   23 1
    35   22   44 1
    36   23   24 2
    37   24   25 1
    38   24   45 1
    39   25   30 ar
    40   25   26 ar
    41   26   27 ar
    42   26   46 1
    43   27   28 ar
    44   27   47 1
    45   28   29 ar
    46   28   31 1
    47   29   30 ar
    48   29   48 1
    49   30   49 1
    50   31   32 1
    51   32   33 1
    52   32   50 1
    53   32   51 1
    54   33   34 2
    55   33   52 1
@<TRIPOS>MOLECULE
ZINC13469844
   52    54     0     0     0
SMALL
USER_CHARGES
(1R,6R)-6-[[2-hydroxy-5-[(2-methoxyphenyl)sulfamoyl]phenyl]carbamoyl]cyclohex-3-ene-1-carboxylic acid
@<TRIPOS>ATOM
      1 C1         -2.2602   -0.3871   -5.5639 C.3       1 <0>         0.0283
      2 O1         -2.2614   -0.7516   -4.1822 O.3       1 <0>        -0.3153
      3 C2         -1.5307   -1.8437   -3.8310 C.ar      1 <0>         0.1060
      4 C3         -0.8239   -2.5450   -4.7939 C.ar      1 <0>        -0.1893
      5 C4         -0.0861   -3.6585   -4.4364 C.ar      1 <0>        -0.0952
      6 C5         -0.0465   -4.0720   -3.1177 C.ar      1 <0>        -0.1194
      7 C6         -0.7444   -3.3744   -2.1498 C.ar      1 <0>        -0.1338
      8 C7         -1.4867   -2.2563   -2.5011 C.ar      1 <0>         0.1290
      9 N1         -2.1943   -1.5481   -1.5229 N.pl3     1 <0>        -1.0462
     10 S1         -1.5668   -1.3903    0.0014 S.o2      1 <0>         2.6890
     11 O2         -1.2733   -2.7036    0.4578 O.2       1 <0>        -0.9339
     12 O3         -2.4334   -0.5139    0.7087 O.2       1 <0>        -0.9516
     13 C8         -0.0233   -0.5547   -0.1545 C.ar      1 <0>        -0.6651
     14 C9          0.0225    0.8260   -0.0948 C.ar      1 <0>        -0.0285
     15 C10         1.2306    1.4871   -0.2160 C.ar      1 <0>        -0.1473
     16 C11         2.3998    0.7664   -0.3979 C.ar      1 <0>         0.1284
     17 C12         2.3543   -0.6245   -0.4581 C.ar      1 <0>         0.1264
     18 C13         1.1384   -1.2809   -0.3356 C.ar      1 <0>        -0.0065
     19 N2          3.5336   -1.3586   -0.6423 N.am      1 <0>        -0.6788
     20 C14         3.6743   -2.5653   -0.0586 C.2       1 <0>         0.5261
     21 O4          2.7489   -3.0540    0.5546 O.2       1 <0>        -0.4670
     22 C15         4.9814   -3.3073   -0.1679 C.3       1 <0>        -0.0797
     23 H1          5.7799   -2.7095    0.2718 H         1 <0>         0.0965
     24 C16         5.2955   -3.5819   -1.6401 C.3       1 <0>        -0.0792
     25 C17         6.4417   -4.5455   -1.7521 C.2       1 <0>        -0.1719
     26 C18         6.8605   -5.2925   -0.7814 C.2       1 <0>        -0.1360
     27 C19         6.2620   -5.2967    0.5948 C.3       1 <0>        -0.0740
     28 C20         4.8760   -4.6486    0.5688 C.3       1 <0>        -0.1109
     29 H2          4.1737   -5.2989    0.0472 H         1 <0>         0.0757
     30 C21         4.3991   -4.4158    1.9792 C.2       1 <0>         0.4779
     31 O5          4.1661   -3.2933    2.3607 O.co2     1 <0>        -0.6276
     32 O6          3.5888    1.4153   -0.5177 O.3       1 <0>        -0.4864
     33 H3         -2.8799    0.4982   -5.7067 H         1 <0>         0.0993
     34 H4         -1.2401   -0.1716   -5.8819 H         1 <0>         0.0550
     35 H5         -2.6596   -1.2097   -6.1570 H         1 <0>         0.0550
     36 H6         -0.8527   -2.2247   -5.8249 H         1 <0>         0.1308
     37 H7          0.4611   -4.2065   -5.1892 H         1 <0>         0.1276
     38 H8          0.5309   -4.9425   -2.8432 H         1 <0>         0.1347
     39 H9         -0.7114   -3.6993   -1.1204 H         1 <0>         0.1700
     40 H10        -3.0522   -1.1497   -1.7379 H         1 <0>         0.4276
     41 H11        -0.8884    1.3897    0.0425 H         1 <0>         0.1424
     42 H12         1.2629    2.5656   -0.1690 H         1 <0>         0.1403
     43 H13         1.0997   -2.3592   -0.3815 H         1 <0>         0.1643
     44 H14         4.2486   -0.9984   -1.1899 H         1 <0>         0.4050
     45 H15         4.4176   -4.0112   -2.1229 H         1 <0>         0.0736
     46 H16         5.5559   -2.6461   -2.1347 H         1 <0>         0.0678
     47 H17         6.9506   -4.6171   -2.7020 H         1 <0>         0.1008
     48 H18         7.6925   -5.9537   -0.9738 H         1 <0>         0.1006
     49 H19         6.9090   -4.7390    1.2718 H         1 <0>         0.0709
     50 H20         6.1737   -6.3244    0.9472 H         1 <0>         0.0813
     51 H21         3.8217    1.6445   -1.4278 H         1 <0>         0.3882
     52 O7          4.2332   -5.4556    2.8118 O.co2     1 <0>        -0.7750
@<TRIPOS>BOND
     1    1    2 1
     2    1   33 1
     3    1   34 1
     4    1   35 1
     5    2    3 1
     6    3    8 ar
     7    3    4 ar
     8    4    5 ar
     9    4   36 1
    10    5    6 ar
    11    5   37 1
    12    6    7 ar
    13    6   38 1
    14    7    8 ar
    15    7   39 1
    16    8    9 1
    17    9   10 1
    18    9   40 1
    19   10   11 2
    20   10   12 2
    21   10   13 1
    22   13   18 ar
    23   13   14 ar
    24   14   15 ar
    25   14   41 1
    26   15   16 ar
    27   15   42 1
    28   16   17 ar
    29   16   32 1
    30   17   18 ar
    31   17   19 1
    32   18   43 1
    33   19   20 am
    34   19   44 1
    35   20   21 2
    36   20   22 1
    37   22   23 1
    38   22   28 1
    39   22   24 1
    40   24   25 1
    41   24   45 1
    42   24   46 1
    43   25   26 2
    44   25   47 1
    45   26   27 1
    46   26   48 1
    47   27   28 1
    48   27   49 1
    49   27   50 1
    50   28   29 1
    51   28   30 1
    52   30   31 2
    53   30   52 1
    54   32   51 1
@<TRIPOS>MOLECULE
ZINC22067022
   53    55     0     0     0
SMALL
USER_CHARGES
(2S,3R,4S,5R,6R)-3,4,5-trihydroxy-6-[2-[1-methyl-5-(4-methylbenzoyl)pyrrol-2-yl]acetyl]oxy-tetrahydropyran-2-carboxylic acid
@<TRIPOS>ATOM
      1 C1          0.6143   -8.5572    0.5785 C.3       1 <0>        -0.1213
      2 C2          0.4254   -7.1739    0.0110 C.ar      1 <0>        -0.0607
      3 C3         -0.2978   -7.0010   -1.1559 C.ar      1 <0>        -0.1324
      4 C4         -0.4745   -5.7376   -1.6807 C.ar      1 <0>        -0.0608
      5 C5          0.0787   -4.6321   -1.0320 C.ar      1 <0>        -0.1477
      6 C6          0.8125   -4.8143    0.1417 C.ar      1 <0>        -0.0745
      7 C7          0.9763   -6.0825    0.6591 C.ar      1 <0>        -0.1318
      8 C8         -0.1067   -3.2746   -1.5888 C.2       1 <0>         0.4635
      9 O1         -0.2633   -3.1243   -2.7865 O.2       1 <0>        -0.4632
     10 C9         -0.1018   -2.1112   -0.6991 C.2       1 <0>        -0.0722
     11 C10        -0.0614   -2.1387    0.6817 C.2       1 <0>        -0.1284
     12 C11        -0.0671   -0.8119    1.1186 C.2       1 <0>        -0.1853
     13 C12        -0.1191   -0.0132    0.0243 C.2       1 <0>         0.0630
     14 N1         -0.1370   -0.7902   -1.0860 N.pl3     1 <0>        -0.3971
     15 C13        -0.1857   -0.3054   -2.4676 C.3       1 <0>         0.0631
     16 C14        -0.1461    1.4935    0.0397 C.3       1 <0>        -0.0534
     17 C15         1.2631    2.0203    0.1278 C.2       1 <0>         0.4586
     18 O2          2.1938    1.2512    0.1734 O.2       1 <0>        -0.4756
     19 O3          1.4842    3.3439    0.1556 O.3       1 <0>        -0.3695
     20 C16         2.8667    3.7796    0.2411 C.3       1 <0>         0.2608
     21 H1          3.3681    3.1912    1.0236 H         1 <0>         0.1245
     22 C17         2.9115    5.2860    0.5104 C.3       1 <0>         0.1274
     23 H2          3.9405    5.6327    0.6862 H         1 <0>         0.0946
     24 C18         2.2626    6.0261   -0.6633 C.3       1 <0>         0.0997
     25 H3          1.1849    5.8155   -0.7276 H         1 <0>         0.0778
     26 C19         2.9887    5.6450   -1.9571 C.3       1 <0>         0.0800
     27 H4          2.5599    6.1631   -2.8276 H         1 <0>         0.0714
     28 C20         2.9409    4.1247   -2.1310 C.3       1 <0>         0.0124
     29 H5          1.9071    3.7526   -2.1851 H         1 <0>         0.0640
     30 O4          3.5324    3.4974   -0.9914 O.3       1 <0>        -0.3293
     31 C21         3.7042    3.7365   -3.3711 C.2       1 <0>         0.4729
     32 O5          4.7094    3.0725   -3.2787 O.co2     1 <0>        -0.6029
     33 O6          3.2673    4.1284   -4.5783 O.co2     1 <0>        -0.7546
     34 O7          4.3496    6.0749   -1.8853 O.3       1 <0>        -0.5849
     35 O8          2.3655    7.4361   -0.4550 O.3       1 <0>        -0.5923
     36 O9          2.1965    5.5777    1.7128 O.3       1 <0>        -0.5894
     37 H6          0.1096   -9.2906   -0.0676 H         1 <0>         0.0668
     38 H7          0.1828   -8.6008    1.5894 H         1 <0>         0.0733
     39 H8          1.6883   -8.7897    0.6278 H         1 <0>         0.0735
     40 H9         -0.7252   -7.8571   -1.6568 H         1 <0>         0.1277
     41 H10        -1.0392   -5.6040   -2.5916 H         1 <0>         0.1309
     42 H11         1.2468   -3.9637    0.6460 H         1 <0>         0.1426
     43 H12         1.5397   -6.2243    1.5695 H         1 <0>         0.1293
     44 H13        -0.0271   -3.0198    1.3054 H         1 <0>         0.1524
     45 H14        -0.0380   -0.4809    2.1463 H         1 <0>         0.1446
     46 H15        -0.2058    0.7944   -2.4697 H         1 <0>         0.0878
     47 H16        -1.0916   -0.6896   -2.9593 H         1 <0>         0.0892
     48 H17         0.7037   -0.6570   -3.0111 H         1 <0>         0.0900
     49 H18        -0.6180    1.8612   -0.8834 H         1 <0>         0.1134
     50 H19        -0.7225    1.8410    0.9097 H         1 <0>         0.1337
     51 H20         5.0309    5.8873   -2.7283 H         1 <0>         0.4148
     52 H21         1.9525    8.1335   -1.1987 H         1 <0>         0.4089
     53 H22         2.1199    6.6156    2.0691 H         1 <0>         0.4148
@<TRIPOS>BOND
     1    1    2 1
     2    1   37 1
     3    1   38 1
     4    1   39 1
     5    2    7 ar
     6    2    3 ar
     7    3    4 ar
     8    3   40 1
     9    4    5 ar
    10    4   41 1
    11    5    6 ar
    12    5    8 1
    13    6    7 ar
    14    6   42 1
    15    7   43 1
    16    8    9 2
    17    8   10 1
    18   10   14 1
    19   10   11 2
    20   11   12 1
    21   11   44 1
    22   12   13 2
    23   12   45 1
    24   13   14 1
    25   13   16 1
    26   14   15 1
    27   15   46 1
    28   15   47 1
    29   15   48 1
    30   16   17 1
    31   16   49 1
    32   16   50 1
    33   17   18 2
    34   17   19 1
    35   19   20 1
    36   20   21 1
    37   20   30 1
    38   20   22 1
    39   22   23 1
    40   22   24 1
    41   22   36 1
    42   24   25 1
    43   24   26 1
    44   24   35 1
    45   26   27 1
    46   26   28 1
    47   26   34 1
    48   28   29 1
    49   28   30 1
    50   28   31 1
    51   31   32 2
    52   31   33 1
    53   34   51 1
    54   35   52 1
    55   36   53 1
@<TRIPOS>MOLECULE
ZINC38794243
   50    53     0     0     0
SMALL
USER_CHARGES

@<TRIPOS>ATOM
      1 C1         -0.0167    1.3780    0.0096 C.ar      1 <0>        -0.1314
      2 C2          1.1706    2.0866    0.0021 C.ar      1 <0>        -0.0792
      3 C3          2.3773    1.4137   -0.0131 C.ar      1 <0>        -0.1547
      4 C4          2.3974    0.0291   -0.0207 C.ar      1 <0>         0.1197
      5 C5          1.2080   -0.6793   -0.0132 C.ar      1 <0>        -0.1306
      6 C6          0.0021   -0.0041    0.0020 C.ar      1 <0>        -0.0720
      7 C7          1.2281   -2.1862   -0.0220 C.3       1 <0>        -0.5463
      8 S1          1.2528   -2.8005    1.6846 S.o2      1 <0>         2.4368
      9 O1          2.4785   -2.4070    2.2863 O.2       1 <0>        -0.9052
     10 O2          0.0289   -2.4398    2.3100 O.2       1 <0>        -0.9122
     11 C8          1.2748   -4.6007    1.4622 C.3       1 <0>        -0.2586
     12 H1          1.3034   -5.1024    2.4295 H         1 <0>         0.1197
     13 N1          0.0918   -5.0402    0.6868 N.3       1 <0>        -0.5047
     14 N2          0.5633   -6.1188   -0.1839 N.3       1 <0>        -0.5090
     15 C9          2.0065   -6.2744    0.1111 C.3       1 <0>         0.2101
     16 H2          2.1614   -7.0640    0.8463 H         1 <0>         0.1127
     17 O3          2.4074   -4.9955    0.6556 O.3       1 <0>        -0.3441
     18 C10         2.7836   -6.5800   -1.1709 C.3       1 <0>        -0.1348
     19 C11         4.2477   -6.8592   -0.8254 C.3       1 <0>         0.1175
     20 N3          4.9919   -7.1518   -2.0529 N.pl3     1 <0>        -1.1211
     21 S2          6.6477   -7.1266   -2.0434 S.o2      1 <0>         2.7057
     22 O4          7.0667   -7.4727   -3.3563 O.2       1 <0>        -0.9668
     23 O5          7.0317   -5.9104   -1.4169 O.2       1 <0>        -0.9616
     24 C12         7.1824   -8.4293   -0.9843 C.ar      1 <0>        -0.7243
     25 C13         7.3689   -8.1847    0.3677 C.ar      1 <0>        -0.0201
     26 C14         7.7862   -9.1938    1.2075 C.ar      1 <0>        -0.1418
     27 C15         8.0222  -10.4692    0.6929 C.ar      1 <0>         0.1515
     28 C16         7.8323  -10.7125   -0.6755 C.ar      1 <0>        -0.0617
     29 C17         7.4072   -9.6873   -1.5052 C.ar      1 <0>         0.0294
     30 O6          8.1337  -12.0158   -0.8760 O.3       1 <0>        -0.2713
     31 C18         8.4907  -12.5502    0.3041 C.2       1 <0>         0.5244
     32 O7          8.8601  -13.8371    0.4910 O.3       1 <0>        -0.6291
     33 N4          8.4296  -11.6455    1.2443 N.2       1 <0>        -0.6060
     34 F1          3.5766   -0.6299   -0.0360 F         1 <0>        -0.1230
     35 H3         -0.9594    1.9048    0.0260 H         1 <0>         0.1365
     36 H4          1.1547    3.1665    0.0077 H         1 <0>         0.1378
     37 H5          3.3046    1.9675   -0.0193 H         1 <0>         0.1429
     38 H6         -0.9259   -0.5565    0.0083 H         1 <0>         0.1422
     39 H7          0.3381   -2.5585   -0.5293 H         1 <0>         0.1555
     40 H8          2.1178   -2.5346   -0.5465 H         1 <0>         0.1494
     41 H9         -0.6418   -5.3643    1.2990 H         1 <0>         0.3801
     42 H10         0.4155   -5.8900   -1.1555 H         1 <0>         0.3677
     43 H11         2.3520   -7.4546   -1.6576 H         1 <0>         0.1029
     44 H12         2.7258   -5.7243   -1.8435 H         1 <0>         0.0889
     45 H13         4.6793   -5.9846   -0.3387 H         1 <0>         0.0907
     46 H14         4.3056   -7.7149   -0.1527 H         1 <0>         0.0744
     47 H15         4.5147   -7.3603   -2.8713 H         1 <0>         0.4159
     48 H16         7.1863   -7.1971    0.7647 H         1 <0>         0.1349
     49 H17         7.9305   -8.9985    2.2599 H         1 <0>         0.1289
     50 H18         7.2559   -9.8715   -2.5586 H         1 <0>         0.1332
@<TRIPOS>BOND
     1    1    6 ar
     2    1    2 ar
     3    1   35 1
     4    2    3 ar
     5    2   36 1
     6    3    4 ar
     7    3   37 1
     8    4    5 ar
     9    4   34 1
    10    5    6 ar
    11    5    7 1
    12    6   38 1
    13    7    8 1
    14    7   39 1
    15    7   40 1
    16    8    9 2
    17    8   10 2
    18    8   11 1
    19   11   12 1
    20   11   17 1
    21   11   13 1
    22   13   14 1
    23   13   41 1
    24   14   15 1
    25   14   42 1
    26   15   16 1
    27   15   17 1
    28   15   18 1
    29   18   19 1
    30   18   43 1
    31   18   44 1
    32   19   20 1
    33   19   45 1
    34   19   46 1
    35   20   21 1
    36   20   47 1
    37   21   22 2
    38   21   23 2
    39   21   24 1
    40   24   29 ar
    41   24   25 ar
    42   25   26 ar
    43   25   48 1
    44   26   27 ar
    45   26   49 1
    46   27   33 1
    47   27   28 ar
    48   28   29 ar
    49   28   30 1
    50   29   50 1
    51   30   31 1
    52   31   32 1
    53   31   33 2
@<TRIPOS>MOLECULE
ZINC62677402
   44    44     0     0     0
SMALL
USER_CHARGES

@<TRIPOS>ATOM
      1 C1         -0.0187    1.5258    0.0104 C.3       1 <0>        -0.1594
      2 C2          0.0021   -0.0041    0.0020 C.3       1 <0>         0.1233
      3 C3          0.7309   -0.5033    1.2229 C.2       1 <0>         0.4909
      4 O1          2.0436   -0.8060    1.1482 O.3       1 <0>        -0.7007
      5 N1          0.0996   -0.6412    2.3398 N.2       1 <0>        -1.0642
      6 S1          0.9005   -1.1898    3.6814 S.o2      1 <0>         2.6483
      7 O2          1.2742   -2.5337    3.4101 O.2       1 <0>        -1.0025
      8 O3          1.8497   -0.1897    4.0250 O.2       1 <0>        -1.0034
      9 C4         -0.2685   -1.2483    4.9985 C.ar      1 <0>        -0.6185
     10 C5         -0.4545   -0.1426    5.8071 C.ar      1 <0>        -0.0242
     11 C6         -1.3716   -0.1885    6.8404 C.ar      1 <0>        -0.1245
     12 C7         -2.1031   -1.3398    7.0647 C.ar      1 <0>        -0.0784
     13 C8         -1.9177   -2.4451    6.2555 C.ar      1 <0>        -0.1245
     14 C9         -1.0037   -2.3978    5.2196 C.ar      1 <0>        -0.0244
     15 C10        -3.1022   -1.3901    8.1918 C.3       1 <0>         0.1788
     16 N2         -4.4108   -0.9469    7.7045 N.am      1 <0>        -0.7398
     17 C11        -5.4649   -0.9092    8.5435 C.2       1 <0>         0.7055
     18 O4         -5.3298   -1.2430    9.7048 O.2       1 <0>        -0.5976
     19 N3         -6.6687   -0.5014    8.0952 N.am      1 <0>        -0.8684
     20 O5          0.6709   -0.4649   -1.1737 O.3       1 <0>        -0.3612
     21 C12        -0.1936   -0.6642   -2.2939 C.3       1 <0>         0.0629
     22 C13         0.6254   -1.1550   -3.4893 C.3       1 <0>        -0.0954
     23 C14        -0.2863   -1.3652   -4.6707 C.2       1 <0>        -0.1447
     24 C15        -0.0335   -0.7663   -5.8079 C.2       1 <0>        -0.1978
     25 H1          1.0039    1.9031    0.0027 H         1 <0>         0.0643
     26 H2         -0.5459    1.8868   -0.8726 H         1 <0>         0.0538
     27 H3         -0.5289    1.8773    0.9072 H         1 <0>         0.0718
     28 H4         -1.0205   -0.3814    0.0098 H         1 <0>         0.0752
     29 H5          0.1170    0.7569    5.6318 H         1 <0>         0.1400
     30 H6         -1.5164    0.6751    7.4726 H         1 <0>         0.1290
     31 H7         -2.4890   -3.3447    6.4310 H         1 <0>         0.1289
     32 H8         -0.8616   -3.2601    4.5850 H         1 <0>         0.1399
     33 H9         -3.1799   -2.4120    8.5632 H         1 <0>         0.0778
     34 H10        -2.7736   -0.7344    8.9982 H         1 <0>         0.0778
     35 H11        -4.5185   -0.6805    6.7781 H         1 <0>         0.4005
     36 H12        -6.7765   -0.2350    7.1688 H         1 <0>         0.3977
     37 H13        -7.4274   -0.4743    8.6991 H         1 <0>         0.4141
     38 H14        -0.9496   -1.4078   -2.0416 H         1 <0>         0.0460
     39 H15        -0.6807    0.2769   -2.5489 H         1 <0>         0.0445
     40 H16         1.3814   -0.4114   -3.7416 H         1 <0>         0.0748
     41 H17         1.1125   -2.0962   -3.2343 H         1 <0>         0.0827
     42 H18        -1.1482   -2.0097   -4.5796 H         1 <0>         0.1088
     43 H19         0.8284   -0.1218   -5.8990 H         1 <0>         0.0967
     44 H20        -0.6869   -0.9169   -6.6545 H         1 <0>         0.0955
@<TRIPOS>BOND
     1    1    2 1
     2    1   25 1
     3    1   26 1
     4    1   27 1
     5    2    3 1
     6    2   20 1
     7    2   28 1
     8    3    4 1
     9    3    5 2
    10    5    6 1
    11    6    7 2
    12    6    8 2
    13    6    9 1
    14    9   14 ar
    15    9   10 ar
    16   10   11 ar
    17   10   29 1
    18   11   12 ar
    19   11   30 1
    20   12   13 ar
    21   12   15 1
    22   13   14 ar
    23   13   31 1
    24   14   32 1
    25   15   16 1
    26   15   33 1
    27   15   34 1
    28   16   17 am
    29   16   35 1
    30   17   18 2
    31   17   19 am
    32   19   36 1
    33   19   37 1
    34   20   21 1
    35   21   22 1
    36   21   38 1
    37   21   39 1
    38   22   23 1
    39   22   40 1
    40   22   41 1
    41   23   24 2
    42   23   42 1
    43   24   43 1
    44   24   44 1
@<TRIPOS>MOLECULE
ZINC13078677
   46    47     0     0     0
SMALL
USER_CHARGES
3,4-dimethyl-5-[[[2-(2-methylphenoxy)acetyl]amino]sulfamoyl]benzoic acid
@<TRIPOS>ATOM
      1 C1          5.9689    0.7417    3.9361 C.3       1 <0>        -0.1083
      2 C2          6.4866    1.5503    2.7746 C.ar      1 <0>        -0.1114
      3 C3          7.7934    1.9989    2.7721 C.ar      1 <0>        -0.0849
      4 C4          8.2689    2.7403    1.7066 C.ar      1 <0>        -0.1534
      5 C5          7.4386    3.0345    0.6406 C.ar      1 <0>        -0.0848
      6 C6          6.1329    2.5840    0.6359 C.ar      1 <0>        -0.2052
      7 C7          5.6516    1.8445    1.7067 C.ar      1 <0>         0.1266
      8 O1          4.3658    1.4045    1.7068 O.3       1 <0>        -0.2857
      9 C8          3.5635    1.7450    0.5743 C.3       1 <0>         0.0466
     10 C9          2.1792    1.1758    0.7500 C.2       1 <0>         0.5219
     11 O2          1.9065    0.5412    1.7468 O.2       1 <0>        -0.4976
     12 N1          1.2442    1.3722   -0.2007 N.am      1 <0>        -0.5041
     13 N2         -0.0427    0.8431   -0.0373 N.pl3     1 <0>        -0.9025
     14 S1         -1.3635    1.8389   -0.1160 S.o2      1 <0>         2.6955
     15 O3         -2.5085    0.9979   -0.0868 O.2       1 <0>        -0.9404
     16 O4         -1.1516    2.8707    0.8379 O.2       1 <0>        -0.9402
     17 C10        -1.3431    2.6071   -1.7016 C.ar      1 <0>        -0.6946
     18 C11        -1.1624    3.9711   -1.8033 C.ar      1 <0>         0.0116
     19 C12        -1.1460    4.5780   -3.0605 C.ar      1 <0>        -0.1317
     20 C13        -1.3129    3.7987   -4.2072 C.ar      1 <0>        -0.0128
     21 C14        -1.4927    2.4362   -4.0911 C.ar      1 <0>        -0.1257
     22 C15        -1.5026    1.8404   -2.8420 C.ar      1 <0>         0.0078
     23 C16        -1.6937    0.3502   -2.7233 C.3       1 <0>        -0.1418
     24 C17        -1.6729    1.5936   -5.3274 C.3       1 <0>        -0.1110
     25 C18        -0.9526    6.0379   -3.1771 C.2       1 <0>         0.4892
     26 O5         -0.8072    6.7131   -2.1779 O.co2     1 <0>        -0.6223
     27 H1          6.1404   -0.3179    3.7463 H         1 <0>         0.0680
     28 H2          6.4915    1.0371    4.8460 H         1 <0>         0.0641
     29 H3          4.9005    0.9211    4.0563 H         1 <0>         0.0744
     30 H4          8.4440    1.7698    3.6032 H         1 <0>         0.1286
     31 H5          9.2907    3.0900    1.7066 H         1 <0>         0.1233
     32 H6          7.8126    3.6136   -0.1907 H         1 <0>         0.1260
     33 H7          5.4862    2.8102   -0.1990 H         1 <0>         0.1308
     34 H8          4.0145    1.3317   -0.3279 H         1 <0>         0.1013
     35 H9          3.5019    2.8296    0.4856 H         1 <0>         0.1057
     36 H10         1.4623    1.8798   -0.9979 H         1 <0>         0.4256
     37 H11        -0.1603   -0.1072    0.1178 H         1 <0>         0.4267
     38 H12        -1.0335    4.5679   -0.9124 H         1 <0>         0.1496
     39 H13        -1.3016    4.2619   -5.1827 H         1 <0>         0.1407
     40 H14        -2.7489    0.1312   -2.5601 H         1 <0>         0.0945
     41 H15        -1.3601   -0.1331   -3.6416 H         1 <0>         0.0833
     42 H16        -1.1104   -0.0251   -1.8825 H         1 <0>         0.0609
     43 H17        -0.6996    1.2517   -5.6792 H         1 <0>         0.0685
     44 H18        -2.2973    0.7318   -5.0919 H         1 <0>         0.0676
     45 H19        -2.1523    2.1878   -6.1054 H         1 <0>         0.0689
     46 O6         -0.9373    6.6203   -4.3917 O.co2     1 <0>        -0.7492
@<TRIPOS>BOND
     1    1    2 1
     2    1   27 1
     3    1   28 1
     4    1   29 1
     5    2    7 ar
     6    2    3 ar
     7    3    4 ar
     8    3   30 1
     9    4    5 ar
    10    4   31 1
    11    5    6 ar
    12    5   32 1
    13    6    7 ar
    14    6   33 1
    15    7    8 1
    16    8    9 1
    17    9   10 1
    18    9   34 1
    19    9   35 1
    20   10   11 2
    21   10   12 am
    22   12   13 1
    23   12   36 1
    24   13   14 1
    25   13   37 1
    26   14   15 2
    27   14   16 2
    28   14   17 1
    29   17   22 ar
    30   17   18 ar
    31   18   19 ar
    32   18   38 1
    33   19   20 ar
    34   19   25 1
    35   20   21 ar
    36   20   39 1
    37   21   22 ar
    38   21   24 1
    39   22   23 1
    40   23   40 1
    41   23   41 1
    42   23   42 1
    43   24   43 1
    44   24   44 1
    45   24   45 1
    46   25   26 2
    47   25   46 1
@<TRIPOS>MOLECULE
ZINC13468145
   54    55     0     0     0
SMALL
USER_CHARGES
1-[2-[[3-(butylsulfamoyl)phenyl]amino]-2-oxo-ethyl]cyclohexane-1-carboxylic acid
@<TRIPOS>ATOM
      1 C1        -10.0060    9.2107    4.8110 C.3       1 <0>        -0.1526
      2 C2         -8.7270    8.5689    5.3525 C.3       1 <0>        -0.1257
      3 C3         -7.5103    9.2206    4.6923 C.3       1 <0>        -0.1263
      4 C4         -6.2314    8.5788    5.2338 C.3       1 <0>         0.1125
      5 N1         -5.0664    9.2029    4.6017 N.pl3     1 <0>        -1.1183
      6 S1         -3.5573    8.9835    5.2473 S.o2      1 <0>         2.6986
      7 O1         -3.6674    9.2533    6.6381 O.2       1 <0>        -0.9577
      8 O2         -2.6500    9.6814    4.4054 O.2       1 <0>        -0.9605
      9 C5         -3.1697    7.2713    5.0956 C.ar      1 <0>        -0.6599
     10 C6         -3.5075    6.3941    6.1100 C.ar      1 <0>        -0.0471
     11 C7         -3.2059    5.0497    5.9943 C.ar      1 <0>        -0.1162
     12 C8         -2.5701    4.5779    4.8624 C.ar      1 <0>        -0.0629
     13 C9         -2.2244    5.4570    3.8448 C.ar      1 <0>         0.1460
     14 C10        -2.5292    6.8068    3.9638 C.ar      1 <0>        -0.0570
     15 N2         -1.5755    4.9831    2.6992 N.am      1 <0>        -0.6871
     16 C11        -0.7130    3.9515    2.7914 C.2       1 <0>         0.5085
     17 O3         -0.4286    3.4941    3.8781 O.2       1 <0>        -0.4762
     18 C12        -0.1021    3.3664    1.5442 C.3       1 <0>        -0.1117
     19 C13         0.9413    2.3166    1.9316 C.3       1 <0>        -0.0835
     20 C14         2.0634    2.9832    2.7301 C.3       1 <0>        -0.0989
     21 C15         2.7233    4.0669    1.8753 C.3       1 <0>        -0.1225
     22 C16         3.3047    3.4343    0.6093 C.3       1 <0>        -0.1164
     23 C17         2.1827    2.7677   -0.1892 C.3       1 <0>        -0.1195
     24 C18         1.5227    1.6839    0.6657 C.3       1 <0>        -0.0947
     25 C19         0.2913    1.2491    2.7737 C.2       1 <0>         0.4837
     26 O4          0.7482    0.9730    3.8576 O.co2     1 <0>        -0.6251
     27 H1        -10.8728    8.7464    5.2813 H         1 <0>         0.0552
     28 H2         -9.9996   10.2776    5.0339 H         1 <0>         0.0539
     29 H3        -10.0567    9.0652    3.7319 H         1 <0>         0.0541
     30 H4         -8.7334    7.5020    5.1296 H         1 <0>         0.0665
     31 H5         -8.6763    8.7143    6.4316 H         1 <0>         0.0664
     32 H6         -7.5040   10.2876    4.9152 H         1 <0>         0.0712
     33 H7         -7.5611    9.0752    3.6132 H         1 <0>         0.0704
     34 H8         -6.2377    7.5119    5.0109 H         1 <0>         0.0682
     35 H9         -6.1806    8.7243    6.3129 H         1 <0>         0.0811
     36 H10        -5.1790    9.7446    3.8049 H         1 <0>         0.4179
     37 H11        -4.0084    6.7598    6.9941 H         1 <0>         0.1378
     38 H12        -3.4714    4.3671    6.7881 H         1 <0>         0.1360
     39 H13        -2.3387    3.5269    4.7707 H         1 <0>         0.1496
     40 H14        -2.2653    7.4924    3.1721 H         1 <0>         0.1399
     41 H15        -1.7464    5.3970    1.8388 H         1 <0>         0.4081
     42 H16         0.3760    4.1584    0.9678 H         1 <0>         0.0848
     43 H17        -0.8816    2.8991    0.9426 H         1 <0>         0.1009
     44 H18         2.8067    2.2352    3.0061 H         1 <0>         0.0599
     45 H19         1.6492    3.4339    3.6320 H         1 <0>         0.0750
     46 H20         1.9800    4.8148    1.5993 H         1 <0>         0.0527
     47 H21         3.5227    4.5418    2.4441 H         1 <0>         0.0532
     48 H22         3.7749    4.2064    0.0003 H         1 <0>         0.0519
     49 H23         4.0480    2.6864    0.8853 H         1 <0>         0.0590
     50 H24         1.4393    3.5156   -0.4652 H         1 <0>         0.0585
     51 H25         2.5968    2.3170   -1.0911 H         1 <0>         0.0552
     52 H26         0.7233    1.2091    0.0968 H         1 <0>         0.0666
     53 H27         2.2660    0.9360    0.9416 H         1 <0>         0.0581
     54 O5         -0.7954    0.6051    2.3195 O.co2     1 <0>        -0.7812
@<TRIPOS>BOND
     1    1    2 1
     2    1   27 1
     3    1   28 1
     4    1   29 1
     5    2    3 1
     6    2   30 1
     7    2   31 1
     8    3    4 1
     9    3   32 1
    10    3   33 1
    11    4    5 1
    12    4   34 1
    13    4   35 1
    14    5    6 1
    15    5   36 1
    16    6    7 2
    17    6    8 2
    18    6    9 1
    19    9   14 ar
    20    9   10 ar
    21   10   11 ar
    22   10   37 1
    23   11   12 ar
    24   11   38 1
    25   12   13 ar
    26   12   39 1
    27   13   14 ar
    28   13   15 1
    29   14   40 1
    30   15   16 am
    31   15   41 1
    32   16   17 2
    33   16   18 1
    34   18   19 1
    35   18   42 1
    36   18   43 1
    37   19   24 1
    38   19   20 1
    39   19   25 1
    40   20   21 1
    41   20   44 1
    42   20   45 1
    43   21   22 1
    44   21   46 1
    45   21   47 1
    46   22   23 1
    47   22   48 1
    48   22   49 1
    49   23   24 1
    50   23   50 1
    51   23   51 1
    52   24   52 1
    53   24   53 1
    54   25   26 2
    55   25   54 1
@<TRIPOS>MOLECULE
ZINC39869875
   47    49     0     0     0
SMALL
USER_CHARGES

@<TRIPOS>ATOM
      1 C1          0.7132   -4.4125    4.1249 C.3       1 <0>         0.0204
      2 O1          0.2276   -3.8703    2.8952 O.3       1 <0>        -0.3035
      3 C2          0.5151   -2.5659    2.6393 C.ar      1 <0>         0.1558
      4 C3          1.2513   -1.8306    3.5483 C.ar      1 <0>        -0.2215
      5 C4          1.5471   -0.4877    3.2837 C.ar      1 <0>         0.0194
      6 C5          1.0952    0.1044    2.0980 C.ar      1 <0>        -0.2182
      7 C6          0.3596   -0.6378    1.1941 C.ar      1 <0>         0.1456
      8 C7          0.0720   -1.9747    1.4586 C.ar      1 <0>         0.0251
      9 O2         -0.6476   -2.7030    0.5645 O.3       1 <0>        -0.3117
     10 C8         -2.0683   -2.6988    0.7182 C.3       1 <0>         0.0350
     11 O3         -0.0798   -0.0636    0.0422 O.3       1 <0>        -0.3048
     12 C9          0.2559    1.3094   -0.1674 C.3       1 <0>         0.0241
     13 C10         2.3286    0.2974    4.2471 C.2       1 <0>        -0.0346
     14 C11         2.9106   -0.3159    5.3092 C.2       1 <0>        -0.1693
     15 C12         3.6029    0.2694    6.4809 C.2       1 <0>         0.5297
     16 O4          3.7288    1.4759    6.6181 O.2       1 <0>        -0.5351
     17 N1          4.0738   -0.5821    7.3652 N.2       1 <0>        -0.7107
     18 C13         3.9438   -1.8920    7.2289 C.2       1 <0>         0.4260
     19 S1          3.0503   -2.0574    5.6914 S.3       1 <0>        -0.1028
     20 N2          4.3839   -2.8833    8.0690 N.2       1 <0>        -0.5272
     21 C14         4.8567   -2.5614    9.3372 C.ar      1 <0>         0.2188
     22 C15         4.4399   -1.3928    9.9617 C.ar      1 <0>        -0.1637
     23 C16         4.9106   -1.0754   11.2194 C.ar      1 <0>        -0.0801
     24 C17         5.7998   -1.9169   11.8688 C.ar      1 <0>        -0.1818
     25 C18         6.2243   -3.0804   11.2650 C.ar      1 <0>        -0.0743
     26 C19         5.7524   -3.4185    9.9943 C.ar      1 <0>        -0.1778
     27 C20         6.1977   -4.6657    9.3451 C.2       1 <0>         0.5597
     28 O5          5.7884   -4.9539    8.2369 O.2       1 <0>        -0.5071
     29 N3          7.0582   -5.4860    9.9800 N.am      1 <0>        -0.8686
     30 H1          0.2944   -3.8511    4.9601 H         1 <0>         0.0601
     31 H2          0.4149   -5.4579    4.2040 H         1 <0>         0.1030
     32 H3          1.8007   -4.3422    4.1488 H         1 <0>         0.0651
     33 H4          1.5978   -2.2908    4.4619 H         1 <0>         0.1571
     34 H5          1.3210    1.1400    1.8904 H         1 <0>         0.1388
     35 H6         -2.4402   -1.6779    0.6312 H         1 <0>         0.0423
     36 H7         -2.5195   -3.3172   -0.0577 H         1 <0>         0.0890
     37 H8         -2.3289   -3.0981    1.6984 H         1 <0>         0.0437
     38 H9         -0.1544    1.6423   -1.1208 H         1 <0>         0.0998
     39 H10        -0.1619    1.9128    0.6385 H         1 <0>         0.0570
     40 H11         1.3402    1.4206   -0.1798 H         1 <0>         0.0583
     41 H12         2.4406    1.3629    4.1108 H         1 <0>         0.1500
     42 H13         3.7471   -0.7318    9.4622 H         1 <0>         0.1410
     43 H14         4.5842   -0.1652   11.7006 H         1 <0>         0.1129
     44 H15         6.1621   -1.6593   12.8530 H         1 <0>         0.1134
     45 H16         6.9180   -3.7323   11.7752 H         1 <0>         0.1144
     46 H17         7.3846   -5.2561   10.8640 H         1 <0>         0.3925
     47 H18         7.3510   -6.3062    9.5530 H         1 <0>         0.3948
@<TRIPOS>BOND
     1    1    2 1
     2    1   30 1
     3    1   31 1
     4    1   32 1
     5    2    3 1
     6    3    8 ar
     7    3    4 ar
     8    4    5 ar
     9    4   33 1
    10    5    6 ar
    11    5   13 1
    12    6    7 ar
    13    6   34 1
    14    7    8 ar
    15    7   11 1
    16    8    9 1
    17    9   10 1
    18   10   35 1
    19   10   36 1
    20   10   37 1
    21   11   12 1
    22   12   38 1
    23   12   39 1
    24   12   40 1
    25   13   14 2
    26   13   41 1
    27   14   19 1
    28   14   15 1
    29   15   16 2
    30   15   17 1
    31   17   18 2
    32   18   19 1
    33   18   20 1
    34   20   21 1
    35   21   26 ar
    36   21   22 ar
    37   22   23 ar
    38   22   42 1
    39   23   24 ar
    40   23   43 1
    41   24   25 ar
    42   24   44 1
    43   25   26 ar
    44   25   45 1
    45   26   27 1
    46   27   28 2
    47   27   29 am
    48   29   46 1
    49   29   47 1
@<TRIPOS>MOLECULE
ZINC55567285
   48    50     0     0     0
SMALL
USER_CHARGES

@<TRIPOS>ATOM
      1 C1         -0.0157    1.3058    0.0092 C.2       1 <0>        -0.1671
      2 C2          0.0021   -0.0041    0.0020 C.2       1 <0>        -0.1751
      3 C3         -1.2926   -0.7753    0.0102 C.3       1 <0>         0.1458
      4 N1         -1.3176   -1.6997   -1.1260 N.am      1 <0>        -0.7289
      5 C4         -2.3857   -2.4981   -1.3218 C.2       1 <0>         0.5637
      6 O1         -3.3282   -2.4511   -0.5557 O.2       1 <0>        -0.5294
      7 C5         -2.4109   -3.4310   -2.4685 C.ar      1 <0>        -0.1663
      8 C6         -1.3276   -3.4916   -3.3469 C.ar      1 <0>        -0.0504
      9 C7         -1.3573   -4.3645   -4.4144 C.ar      1 <0>        -0.1519
     10 C8         -2.4579   -5.1788   -4.6159 C.ar      1 <0>         0.0062
     11 C9         -3.5346   -5.1237   -3.7492 C.ar      1 <0>        -0.6169
     12 C10        -3.5153   -4.2590   -2.6741 C.ar      1 <0>         0.0412
     13 S1         -4.9313   -6.1644   -4.0152 S.o2      1 <0>         2.5905
     14 O2         -6.0349   -5.5333   -3.3803 O.2       1 <0>        -1.0237
     15 O3         -4.9344   -6.4946   -5.3973 O.2       1 <0>        -1.0272
     16 N2         -4.6549   -7.5747   -3.1923 N.2       1 <0>        -1.0276
     17 C11        -5.5991   -8.5926   -3.2223 C.ar      1 <0>         0.3287
     18 C12        -6.7745   -8.4339   -3.9463 C.ar      1 <0>        -0.2670
     19 C13        -7.7107   -9.4468   -3.9749 C.ar      1 <0>        -0.0413
     20 C14        -7.4883  -10.6278   -3.2841 C.ar      1 <0>        -0.2372
     21 C15        -6.3292  -10.8035   -2.5609 C.ar      1 <0>        -0.0406
     22 C16        -5.3687   -9.7893   -2.5262 C.ar      1 <0>        -0.2195
     23 C17        -4.1232   -9.9731   -1.7590 C.2       1 <0>         0.5669
     24 O4         -3.2917   -9.0863   -1.7279 O.2       1 <0>        -0.4973
     25 N3         -3.9061  -11.1240   -1.0921 N.am      1 <0>        -0.7218
     26 C18        -2.6685  -11.3067   -0.3297 C.3       1 <0>         0.0977
     27 C19        -1.9545  -12.6542   -0.4541 C.3       1 <0>        -0.2020
     28 C20        -2.6964  -12.2977    0.8356 C.3       1 <0>        -0.1982
     29 H1          0.9122    1.8585    0.0033 H         1 <0>         0.1030
     30 H2         -0.9582    1.8330    0.0166 H         1 <0>         0.1006
     31 H3          0.9446   -0.5313   -0.0098 H         1 <0>         0.1158
     32 H4         -1.3737   -1.3393    0.9394 H         1 <0>         0.0779
     33 H5         -2.1295   -0.0812   -0.0676 H         1 <0>         0.0727
     34 H6         -0.5655   -1.7372   -1.7373 H         1 <0>         0.4000
     35 H7         -0.4683   -2.8561   -3.1911 H         1 <0>         0.1263
     36 H8         -0.5198   -4.4124   -5.0947 H         1 <0>         0.1341
     37 H9         -2.4764   -5.8601   -5.4537 H         1 <0>         0.1422
     38 H10        -4.3548   -4.2199   -1.9958 H         1 <0>         0.1495
     39 H11        -6.9554   -7.5167   -4.4869 H         1 <0>         0.1032
     40 H12        -8.6228   -9.3187   -4.5388 H         1 <0>         0.1065
     41 H13        -8.2279  -11.4143   -3.3129 H         1 <0>         0.1066
     42 H14        -6.1614  -11.7257   -2.0243 H         1 <0>         0.1057
     43 H15        -4.5694  -11.8314   -1.1168 H         1 <0>         0.3918
     44 H16        -2.0489  -10.4168   -0.2189 H         1 <0>         0.1339
     45 H17        -2.4056  -13.4047   -1.1032 H         1 <0>         0.0930
     46 H18        -0.8649  -12.6509   -0.4253 H         1 <0>         0.0957
     47 H19        -2.0948  -12.0600    1.7130 H         1 <0>         0.0970
     48 H20        -3.6355  -12.8138    1.0351 H         1 <0>         0.0931
@<TRIPOS>BOND
     1    1    2 2
     2    1   29 1
     3    1   30 1
     4    2    3 1
     5    2   31 1
     6    3    4 1
     7    3   32 1
     8    3   33 1
     9    4    5 am
    10    4   34 1
    11    5    6 2
    12    5    7 1
    13    7   12 ar
    14    7    8 ar
    15    8    9 ar
    16    8   35 1
    17    9   10 ar
    18    9   36 1
    19   10   11 ar
    20   10   37 1
    21   11   12 ar
    22   11   13 1
    23   12   38 1
    24   13   14 2
    25   13   15 2
    26   13   16 1
    27   16   17 1
    28   17   22 ar
    29   17   18 ar
    30   18   19 ar
    31   18   39 1
    32   19   20 ar
    33   19   40 1
    34   20   21 ar
    35   20   41 1
    36   21   22 ar
    37   21   42 1
    38   22   23 1
    39   23   24 2
    40   23   25 am
    41   25   26 1
    42   25   43 1
    43   26   28 1
    44   26   27 1
    45   26   44 1
    46   27   28 1
    47   27   45 1
    48   27   46 1
    49   28   47 1
    50   28   48 1
@<TRIPOS>MOLECULE
ZINC61499428
   43    44     0     0     0
SMALL
USER_CHARGES

@<TRIPOS>ATOM
      1 C1         -0.0187    1.5258    0.0104 C.3       1 <0>        -0.1662
      2 C2          0.0021   -0.0041    0.0020 C.3       1 <0>         0.1133
      3 N1          0.6878   -0.4765   -1.2033 N.am      1 <0>        -0.7275
      4 C3          0.8268   -1.7986   -1.4250 C.2       1 <0>         0.5103
      5 O1          0.3843   -2.5972   -0.6267 O.2       1 <0>        -0.5359
      6 C4          1.5322   -2.2846   -2.6649 C.3       1 <0>         0.1007
      7 N2          1.5521   -3.7495   -2.6730 N.am      1 <0>        -0.7208
      8 C5          2.1351   -4.4099   -3.6930 C.2       1 <0>         0.5684
      9 O2          2.6444   -3.7902   -4.6062 O.2       1 <0>        -0.5297
     10 C6          2.1551   -5.8882   -3.7011 C.ar      1 <0>        -0.1662
     11 C7          1.5660   -6.6030   -2.6567 C.ar      1 <0>        -0.0479
     12 C8          1.5878   -7.9822   -2.6706 C.ar      1 <0>        -0.1512
     13 C9          2.1923   -8.6571   -3.7166 C.ar      1 <0>         0.0055
     14 C10         2.7779   -7.9548   -4.7546 C.ar      1 <0>        -0.6236
     15 C11         2.7580   -6.5751   -4.7557 C.ar      1 <0>         0.0401
     16 S1          3.5454   -8.8240   -6.0813 S.o2      1 <0>         2.6017
     17 O3          4.4965   -7.9360   -6.6522 O.2       1 <0>        -1.0224
     18 O4          3.9045  -10.1024   -5.5753 O.2       1 <0>        -1.0255
     19 N3          2.3852   -9.0804   -7.2348 N.2       1 <0>        -1.0847
     20 C12         2.7099   -9.7555   -8.4144 C.ar      1 <0>         0.2843
     21 C13         4.0040  -10.2171   -8.6182 C.ar      1 <0>        -0.2556
     22 C14         4.3220  -10.8845   -9.7848 C.ar      1 <0>        -0.0521
     23 C15         3.3529  -11.0930  -10.7503 C.ar      1 <0>        -0.1349
     24 C16         2.0628  -10.6342  -10.5500 C.ar      1 <0>        -0.0667
     25 C17         1.7378   -9.9712   -9.3828 C.ar      1 <0>        -0.1723
     26 Cl1         3.7564  -11.9312  -12.2160 Cl        1 <0>        -0.1168
     27 H1          1.0039    1.9031    0.0027 H         1 <0>         0.0630
     28 H2         -0.5459    1.8868   -0.8726 H         1 <0>         0.0632
     29 H3         -0.5289    1.8773    0.9072 H         1 <0>         0.0752
     30 H4          0.5293   -0.3651    0.8851 H         1 <0>         0.0691
     31 H5         -1.0205   -0.3814    0.0098 H         1 <0>         0.0694
     32 H6          1.0417    0.1622   -1.8418 H         1 <0>         0.4051
     33 H7          1.0050   -1.9236   -3.5480 H         1 <0>         0.1024
     34 H8          2.5548   -1.9074   -2.6726 H         1 <0>         0.1019
     35 H9          1.1456   -4.2440   -1.9442 H         1 <0>         0.4110
     36 H10         1.0946   -6.0774   -1.8395 H         1 <0>         0.1295
     37 H11         1.1324   -8.5364   -1.8633 H         1 <0>         0.1356
     38 H12         2.2072   -9.7370   -3.7223 H         1 <0>         0.1435
     39 H13         3.2119   -6.0280   -5.5688 H         1 <0>         0.1511
     40 H14         4.7609  -10.0541   -7.8653 H         1 <0>         0.1054
     41 H15         5.3280  -11.2436   -9.9438 H         1 <0>         0.1131
     42 H16         1.3084  -10.7983  -11.3052 H         1 <0>         0.1158
     43 H17         0.7297   -9.6172   -9.2250 H         1 <0>         0.1216
@<TRIPOS>BOND
     1    1    2 1
     2    1   27 1
     3    1   28 1
     4    1   29 1
     5    2    3 1
     6    2   30 1
     7    2   31 1
     8    3    4 am
     9    3   32 1
    10    4    5 2
    11    4    6 1
    12    6    7 1
    13    6   33 1
    14    6   34 1
    15    7    8 am
    16    7   35 1
    17    8    9 2
    18    8   10 1
    19   10   15 ar
    20   10   11 ar
    21   11   12 ar
    22   11   36 1
    23   12   13 ar
    24   12   37 1
    25   13   14 ar
    26   13   38 1
    27   14   15 ar
    28   14   16 1
    29   15   39 1
    30   16   17 2
    31   16   18 2
    32   16   19 1
    33   19   20 1
    34   20   25 ar
    35   20   21 ar
    36   21   22 ar
    37   21   40 1
    38   22   23 ar
    39   22   41 1
    40   23   24 ar
    41   23   26 1
    42   24   25 ar
    43   24   42 1
    44   25   43 1
@<TRIPOS>MOLECULE
ZINC09492110
   53    55     0     0     0
SMALL
USER_CHARGES
ethyl 2-[2-[3-(2,5-dioxoimidazolidin-4-yl)propanoyloxy]acetyl]amino-4,5,6,7-tetrahydrobenzothiophene-3-carboxylate
@<TRIPOS>ATOM
      1 C1         -3.1554   -2.9829   -2.5330 C.3       1 <0>        -0.1534
      2 C2         -3.0621   -2.4199   -1.1135 C.3       1 <0>         0.0578
      3 O1         -2.8381   -0.9866   -1.1750 O.3       1 <0>        -0.3500
      4 C3         -2.7315   -0.3324   -0.0002 C.2       1 <0>         0.5307
      5 O2         -2.8234   -0.9442    1.0471 O.2       1 <0>        -0.4932
      6 C4         -2.5051    1.1142    0.0143 C.2       1 <0>        -0.2009
      7 C5         -3.6160    2.0512    0.0309 C.2       1 <0>        -0.0629
      8 C6         -3.2680    3.3560    0.0355 C.2       1 <0>        -0.2027
      9 S1         -1.4976    3.3528    0.0268 S.3       1 <0>         0.2474
     10 C7         -1.2207    1.6425    0.0168 C.2       1 <0>         0.0757
     11 N1         -0.0111    0.9658    0.0074 N.am      1 <0>        -0.6172
     12 C8          1.1468    1.6555   -0.0000 C.2       1 <0>         0.5120
     13 O3          1.1304    2.8682    0.0067 O.2       1 <0>        -0.4707
     14 C9          2.4620    0.9199   -0.0165 C.3       1 <0>         0.0561
     15 O4          3.5526    1.8783   -0.0218 O.3       1 <0>        -0.3307
     16 C10         4.7998    1.3822   -0.0363 C.2       1 <0>         0.4670
     17 O5          4.9743    0.1867   -0.0444 O.2       1 <0>        -0.4981
     18 C11         5.9823    2.3164   -0.0426 C.3       1 <0>        -0.1106
     19 C12         7.2766    1.5007   -0.0594 C.3       1 <0>        -0.1125
     20 C13         8.4772    2.4491   -0.0657 C.3       1 <0>         0.0928
     21 H1          8.4159    3.1491    0.7676 H         1 <0>         0.1369
     22 C14         9.7747    1.6673   -0.0112 C.2       1 <0>         0.5303
     23 O6         10.1446    0.9230    0.8713 O.2       1 <0>        -0.4577
     24 N2         10.4312    1.9712   -1.1483 N.am      1 <0>        -0.6790
     25 C15         9.7360    2.8274   -1.9058 C.2       1 <0>         0.7044
     26 O7         10.1228    3.2483   -2.9783 O.2       1 <0>        -0.5367
     27 N3          8.5588    3.1733   -1.3459 N.am      1 <0>        -0.7250
     28 C16        -4.1895    4.5366    0.0457 C.3       1 <0>        -0.0366
     29 C17        -5.5986    4.0536   -0.3275 C.3       1 <0>        -0.1152
     30 C18        -5.9310    2.8118    0.5047 C.3       1 <0>        -0.1191
     31 C19        -5.0802    1.6295    0.0372 C.3       1 <0>        -0.0637
     32 H2         -3.3236   -4.0589   -2.4868 H         1 <0>         0.0824
     33 H3         -3.9838   -2.5079   -3.0586 H         1 <0>         0.0683
     34 H4         -2.2252   -2.7831   -3.0650 H         1 <0>         0.0668
     35 H5         -2.2338   -2.8949   -0.5879 H         1 <0>         0.0707
     36 H6         -3.9923   -2.6197   -0.5815 H         1 <0>         0.0726
     37 H7          0.0021   -0.0041    0.0020 H         1 <0>         0.4216
     38 H8          2.5367    0.2893    0.8694 H         1 <0>         0.1139
     39 H9          2.5197    0.2988   -0.9104 H         1 <0>         0.1135
     40 H10         5.9404    2.9496   -0.9289 H         1 <0>         0.1124
     41 H11         5.9574    2.9400    0.8510 H         1 <0>         0.1198
     42 H12         7.3185    0.8675    0.8269 H         1 <0>         0.1050
     43 H13         7.3015    0.8770   -0.9530 H         1 <0>         0.0895
     44 H14        11.3001    1.6130   -1.3882 H         1 <0>         0.4360
     45 H15         7.8952    3.7782   -1.7129 H         1 <0>         0.4428
     46 H16        -4.2054    4.9814    1.0407 H         1 <0>         0.0850
     47 H17        -3.8492    5.2744   -0.6809 H         1 <0>         0.0838
     48 H18        -6.3226    4.8403   -0.1151 H         1 <0>         0.0758
     49 H19        -5.6304    3.8045   -1.3882 H         1 <0>         0.0696
     50 H20        -5.7237    3.0140    1.5555 H         1 <0>         0.0684
     51 H21        -6.9863    2.5670    0.3843 H         1 <0>         0.0721
     52 H22        -5.2157    0.7898    0.7188 H         1 <0>         0.0738
     53 H23        -5.3827    1.3366   -0.9681 H         1 <0>         0.0810
@<TRIPOS>BOND
     1    1    2 1
     2    1   32 1
     3    1   33 1
     4    1   34 1
     5    2    3 1
     6    2   35 1
     7    2   36 1
     8    3    4 1
     9    4    5 2
    10    4    6 1
    11    6   10 2
    12    6    7 1
    13    7   31 1
    14    7    8 2
    15    8    9 1
    16    8   28 1
    17    9   10 1
    18   10   11 1
    19   11   12 am
    20   11   37 1
    21   12   13 2
    22   12   14 1
    23   14   15 1
    24   14   38 1
    25   14   39 1
    26   15   16 1
    27   16   17 2
    28   16   18 1
    29   18   19 1
    30   18   40 1
    31   18   41 1
    32   19   20 1
    33   19   42 1
    34   19   43 1
    35   20   21 1
    36   20   27 1
    37   20   22 1
    38   22   23 2
    39   22   24 am
    40   24   25 am
    41   24   44 1
    42   25   26 2
    43   25   27 am
    44   27   45 1
    45   28   29 1
    46   28   46 1
    47   28   47 1
    48   29   30 1
    49   29   48 1
    50   29   49 1
    51   30   31 1
    52   30   50 1
    53   30   51 1
    54   31   52 1
    55   31   53 1
@<TRIPOS>MOLECULE
ZINC15127305
   64    65     0     0     0
SMALL
USER_CHARGES
2-[[5-(dimethylsulfamoyl)-2-ethylamino-phenyl]amino]-N-[5-(dimethylsulfamoyl)-2-methyl-phenyl]acetamide
@<TRIPOS>ATOM
      1 C1         -3.6713    2.2994    0.0225 C.3       1 <0>        -0.1673
      2 C2         -2.4966    1.3194    0.0005 C.3       1 <0>         0.1183
      3 N1         -1.2368    2.0672   -0.0000 N.pl3     1 <0>        -0.7428
      4 C3         -0.0159    1.3819   -0.0186 C.ar      1 <0>         0.2159
      5 C4          0.0031   -0.0044   -0.0365 C.ar      1 <0>        -0.1807
      6 C5          1.2098   -0.6790   -0.0605 C.ar      1 <0>        -0.0137
      7 C6          2.3998    0.0247   -0.0668 C.ar      1 <0>        -0.6875
      8 C7          2.3902    1.4073   -0.0486 C.ar      1 <0>        -0.0634
      9 C8          1.1846    2.0919   -0.0249 C.ar      1 <0>         0.1311
     10 N2          1.1724    3.4919   -0.0073 N.pl3     1 <0>        -0.7428
     11 C9          2.4347    4.2356   -0.0140 C.3       1 <0>         0.1096
     12 C10         2.1465    5.7146    0.0080 C.2       1 <0>         0.5119
     13 O1          0.9996    6.1087    0.0274 O.2       1 <0>        -0.5121
     14 N3          3.1632    6.5993    0.0062 N.am      1 <0>        -0.6639
     15 C11         2.8978    7.9698   -0.0900 C.ar      1 <0>         0.1245
     16 C12         1.7218    8.4110   -0.6829 C.ar      1 <0>        -0.0273
     17 C13         1.4629    9.7642   -0.7764 C.ar      1 <0>        -0.6642
     18 C14         2.3731   10.6798   -0.2804 C.ar      1 <0>        -0.0327
     19 C15         3.5446   10.2439    0.3103 C.ar      1 <0>        -0.1187
     20 C16         3.8069    8.8914    0.4121 C.ar      1 <0>        -0.0564
     21 C17         5.0812    8.4170    1.0617 C.3       1 <0>        -0.1269
     22 S1         -0.0290   10.3250   -1.5278 S.o2      1 <0>         2.6920
     23 O2          0.2175   11.6488   -1.9817 O.2       1 <0>        -0.9515
     24 O3         -0.4592    9.2885   -2.3994 O.2       1 <0>        -0.9515
     25 N4         -1.1673   10.4394   -0.3305 N.pl3     1 <0>        -1.0033
     26 C18        -1.3261   11.6923    0.4119 C.3       1 <0>         0.0912
     27 C19        -2.0155    9.2877   -0.0137 C.3       1 <0>         0.0855
     28 S2          3.9332   -0.8427   -0.0975 S.o2      1 <0>         2.6951
     29 O4          4.9069    0.0342    0.4521 O.2       1 <0>        -0.9603
     30 O5          3.6804   -2.1335    0.4402 O.2       1 <0>        -0.9583
     31 N5          4.3391   -1.0635   -1.6877 N.pl3     1 <0>        -1.0066
     32 C20         5.1433   -0.0570   -2.3851 C.3       1 <0>         0.0938
     33 C21         3.8938   -2.2655   -2.3972 C.3       1 <0>         0.0847
     34 H1         -3.6140    2.9153    0.9200 H         1 <0>         0.0622
     35 H2         -3.6282    2.9381   -0.8598 H         1 <0>         0.0630
     36 H3         -4.6086    1.7431    0.0228 H         1 <0>         0.0765
     37 H4         -2.5539    0.7036   -0.8970 H         1 <0>         0.0641
     38 H5         -2.5396    0.6808    0.8827 H         1 <0>         0.0640
     39 H6         -1.2484    3.0371    0.0125 H         1 <0>         0.3985
     40 H7         -0.9246   -0.5573   -0.0320 H         1 <0>         0.1329
     41 H8          1.2228   -1.7588   -0.0748 H         1 <0>         0.1366
     42 H9          3.3216    1.9539   -0.0532 H         1 <0>         0.1349
     43 H10         0.3283    3.9695    0.0093 H         1 <0>         0.4062
     44 H11         3.0197    3.9663    0.8654 H         1 <0>         0.0985
     45 H12         2.9972    3.9884   -0.9143 H         1 <0>         0.0981
     46 H13         4.0788    6.2861    0.0716 H         1 <0>         0.4176
     47 H14         1.0104    7.6965   -1.0701 H         1 <0>         0.1614
     48 H15         2.1684   11.7376   -0.3550 H         1 <0>         0.1424
     49 H16         4.2533   10.9613    0.6970 H         1 <0>         0.1399
     50 H17         5.8633    8.3305    0.3073 H         1 <0>         0.0832
     51 H18         5.3890    9.1330    1.8237 H         1 <0>         0.0813
     52 H19         4.9131    7.4442    1.5238 H         1 <0>         0.0697
     53 H20        -2.0576   12.3235   -0.0927 H         1 <0>         0.0636
     54 H21        -1.6701   11.4745    1.4230 H         1 <0>         0.0754
     55 H22        -0.3687   12.2113    0.4578 H         1 <0>         0.0720
     56 H23        -1.7537    8.4537   -0.6648 H         1 <0>         0.0865
     57 H24        -1.8625    8.9989    1.0261 H         1 <0>         0.0625
     58 H25        -3.0614    9.5538   -0.1668 H         1 <0>         0.0682
     59 H26         6.2010   -0.2946   -2.2713 H         1 <0>         0.0608
     60 H27         4.8835   -0.0539   -3.4436 H         1 <0>         0.0737
     61 H28         4.9439    0.9263   -1.9591 H         1 <0>         0.0698
     62 H29         3.3122   -2.8920   -1.7210 H         1 <0>         0.0859
     63 H30         3.2757   -1.9774   -3.2476 H         1 <0>         0.0622
     64 H31         4.7622   -2.8212   -2.7510 H         1 <0>         0.0665
@<TRIPOS>BOND
     1    1    2 1
     2    1   34 1
     3    1   35 1
     4    1   36 1
     5    2    3 1
     6    2   37 1
     7    2   38 1
     8    3    4 1
     9    3   39 1
    10    4    9 ar
    11    4    5 ar
    12    5    6 ar
    13    5   40 1
    14    6    7 ar
    15    6   41 1
    16    7    8 ar
    17    7   28 1
    18    8    9 ar
    19    8   42 1
    20    9   10 1
    21   10   11 1
    22   10   43 1
    23   11   12 1
    24   11   44 1
    25   11   45 1
    26   12   13 2
    27   12   14 am
    28   14   15 1
    29   14   46 1
    30   15   20 ar
    31   15   16 ar
    32   16   17 ar
    33   16   47 1
    34   17   18 ar
    35   17   22 1
    36   18   19 ar
    37   18   48 1
    38   19   20 ar
    39   19   49 1
    40   20   21 1
    41   21   50 1
    42   21   51 1
    43   21   52 1
    44   22   23 2
    45   22   24 2
    46   22   25 1
    47   25   26 1
    48   25   27 1
    49   26   53 1
    50   26   54 1
    51   26   55 1
    52   27   56 1
    53   27   57 1
    54   27   58 1
    55   28   29 2
    56   28   30 2
    57   28   31 1
    58   31   32 1
    59   31   33 1
    60   32   59 1
    61   32   60 1
    62   32   61 1
    63   33   62 1
    64   33   63 1
    65   33   64 1
@<TRIPOS>MOLECULE
ZINC25376585
   60    62     0     0     0
SMALL
USER_CHARGES
N-[4-[N'-[(2S)-2-(4-fluorophenoxy)propanoyl]hydrazino]-4-oxo-butyl]-3,4-dihydro-2H-1,5-benzodioxepine-7-sulfonamide
@<TRIPOS>ATOM
      1 C1          9.2214   -0.8524    2.5857 C.3       1 <0>        -0.1804
      2 C2          9.5475   -0.1610    1.2604 C.3       1 <0>         0.0778
      3 H1          9.6491   -0.8848    0.4383 H         1 <0>         0.1063
      4 C3          8.4745    0.8485    0.9432 C.2       1 <0>         0.5213
      5 O1          8.7447    2.0304    0.9098 O.2       1 <0>        -0.5191
      6 N1          7.2147    0.4380    0.6966 N.am      1 <0>        -0.5308
      7 N2          6.2172    1.3765    0.4016 N.am      1 <0>        -0.5331
      8 C4          4.9574    0.9659    0.1550 C.2       1 <0>         0.5178
      9 O2          4.6873   -0.2160    0.1884 O.2       1 <0>        -0.5435
     10 C5          3.8844    1.9754   -0.1622 C.3       1 <0>        -0.1327
     11 C6          2.5573    1.2518   -0.3990 C.3       1 <0>        -0.1095
     12 C7          1.4680    2.2767   -0.7211 C.3       1 <0>         0.1125
     13 N3          0.1972    1.5838   -0.9479 N.pl3     1 <0>        -1.1196
     14 S1         -1.2217    2.4376   -0.9550 S.o2      1 <0>         2.6971
     15 O3         -2.2565    1.5033   -1.2297 O.2       1 <0>        -0.9542
     16 O4         -1.2153    3.2455    0.2140 O.2       1 <0>        -0.9507
     17 C8         -1.1599    3.5392   -2.3288 C.ar      1 <0>        -0.6799
     18 C9         -0.6400    4.8103   -2.1698 C.ar      1 <0>        -0.0130
     19 C10        -0.5837    5.6790   -3.2451 C.ar      1 <0>        -0.1373
     20 C11        -1.0602    5.2737   -4.4803 C.ar      1 <0>         0.1241
     21 C12        -1.5869    3.9998   -4.6387 C.ar      1 <0>         0.0455
     22 C13        -1.6371    3.1312   -3.5616 C.ar      1 <0>        -0.0156
     23 O5         -2.0528    3.6098   -5.8606 O.3       1 <0>        -0.3144
     24 C14        -3.2352    4.2695   -6.3178 C.3       1 <0>         0.0551
     25 C15        -2.8905    5.5872   -6.9939 C.3       1 <0>        -0.1909
     26 C16        -2.2762    6.5895   -6.0294 C.3       1 <0>         0.0571
     27 O6         -1.0144    6.1221   -5.5483 O.3       1 <0>        -0.3213
     28 O7         10.8089    0.5021    1.3668 O.3       1 <0>        -0.2853
     29 C17        11.9203   -0.2440    1.1295 C.ar      1 <0>         0.1202
     30 C18        13.1684    0.3603    1.0984 C.ar      1 <0>        -0.1168
     31 C19        14.2976   -0.4000    0.8633 C.ar      1 <0>        -0.1108
     32 C20        14.1827   -1.7627    0.6469 C.ar      1 <0>         0.0629
     33 C21        12.9368   -2.3662    0.6715 C.ar      1 <0>        -0.1111
     34 C22        11.8066   -1.6093    0.9125 C.ar      1 <0>        -0.1852
     35 F1         15.2873   -2.5043    0.4119 F         1 <0>        -0.1388
     36 H2         10.0046   -1.5893    2.8173 H         1 <0>         0.0829
     37 H3          8.2504   -1.3628    2.5038 H         1 <0>         0.0832
     38 H4          9.1747   -0.1022    3.3888 H         1 <0>         0.0814
     39 H5          6.9697   -0.6339    0.7270 H         1 <0>         0.4585
     40 H6          6.4622    2.4484    0.3713 H         1 <0>         0.4600
     41 H7          3.7763    2.6729    0.6815 H         1 <0>         0.1066
     42 H8          4.1634    2.5350   -1.0671 H         1 <0>         0.1049
     43 H9          2.6655    0.5543   -1.2426 H         1 <0>         0.0816
     44 H10         2.2782    0.6922    0.5060 H         1 <0>         0.0857
     45 H11         1.3598    2.9742    0.1226 H         1 <0>         0.0873
     46 H12         1.7471    2.8363   -1.6260 H         1 <0>         0.0640
     47 H13         0.1941    0.5336   -1.2751 H         1 <0>         0.4461
     48 H14        -0.2727    5.1247   -1.2041 H         1 <0>         0.1507
     49 H15        -0.1737    6.6703   -3.1205 H         1 <0>         0.1469
     50 H16        -2.0474    2.1396   -3.6832 H         1 <0>         0.1530
     51 H17        -3.7579    3.6259   -7.0407 H         1 <0>         0.1123
     52 H18        -3.8962    4.4720   -5.4622 H         1 <0>         0.0613
     53 H19        -2.1670    5.4062   -7.8025 H         1 <0>         0.0883
     54 H20        -3.8041    6.0345   -7.4127 H         1 <0>         0.0973
     55 H21        -2.1259    7.5496   -6.5448 H         1 <0>         0.1125
     56 H22        -2.9508    6.7349   -5.1728 H         1 <0>         0.0612
     57 H23        13.2578    1.4241    1.2624 H         1 <0>         0.1444
     58 H24        15.2701    0.0694    0.8441 H         1 <0>         0.1451
     59 H25        12.8486   -3.4293    0.5026 H         1 <0>         0.1405
     60 H26        10.8350   -2.0804    0.9324 H         1 <0>         0.1405
@<TRIPOS>BOND
     1    1    2 1
     2    1   36 1
     3    1   37 1
     4    1   38 1
     5    2    3 1
     6    2    4 1
     7    2   28 1
     8    4    5 2
     9    4    6 am
    10    6    7 1
    11    6   39 1
    12    7    8 am
    13    7   40 1
    14    8    9 2
    15    8   10 1
    16   10   11 1
    17   10   41 1
    18   10   42 1
    19   11   12 1
    20   11   43 1
    21   11   44 1
    22   12   13 1
    23   12   45 1
    24   12   46 1
    25   13   14 1
    26   13   47 1
    27   14   15 2
    28   14   16 2
    29   14   17 1
    30   17   22 ar
    31   17   18 ar
    32   18   19 ar
    33   18   48 1
    34   19   20 ar
    35   19   49 1
    36   20   27 1
    37   20   21 ar
    38   21   22 ar
    39   21   23 1
    40   22   50 1
    41   23   24 1
    42   24   25 1
    43   24   51 1
    44   24   52 1
    45   25   26 1
    46   25   53 1
    47   25   54 1
    48   26   27 1
    49   26   55 1
    50   26   56 1
    51   28   29 1
    52   29   34 ar
    53   29   30 ar
    54   30   31 ar
    55   30   57 1
    56   31   32 ar
    57   31   58 1
    58   32   33 ar
    59   32   35 1
    60   33   34 ar
    61   33   59 1
    62   34   60 1
@<TRIPOS>MOLECULE
ZINC39574501
   54    55     0     0     0
SMALL
USER_CHARGES

@<TRIPOS>ATOM
      1 C1          0.0923    1.1998   -1.3034 C.3       1 <0>        -0.1347
      2 C2          0.0503   -0.1456   -0.5761 C.3       1 <0>        -0.1127
      3 C3          0.5238    0.0398    0.8670 C.3       1 <0>        -0.1475
      4 C4         -1.3612   -0.6737   -0.5777 C.2       1 <0>         0.5169
      5 O1         -2.2463   -0.0367   -1.1084 O.2       1 <0>        -0.5162
      6 N1         -1.6398   -1.8538    0.0106 N.am      1 <0>        -0.6611
      7 C5         -2.9609   -2.2876    0.1115 C.ar      1 <0>         0.2374
      8 C6         -3.9969   -1.3664    0.1128 C.ar      1 <0>        -0.2134
      9 C7         -5.3096   -1.7977    0.2131 C.ar      1 <0>         0.1736
     10 C8         -5.5969   -3.1602    0.3128 C.ar      1 <0>         0.0690
     11 C9         -4.5751   -4.0861    0.3125 C.ar      1 <0>        -0.0933
     12 C10        -3.2462   -3.6591    0.2062 C.ar      1 <0>        -0.1770
     13 C11        -2.1524   -4.6431    0.1999 C.2       1 <0>         0.5320
     14 O2         -0.9966   -4.2671    0.2030 O.2       1 <0>        -0.5156
     15 O3         -2.4322   -5.9617    0.1906 O.3       1 <0>        -0.3200
     16 C12        -1.3213   -6.8605    0.1848 C.3       1 <0>         0.0603
     17 C13        -1.8246   -8.2810    0.1747 C.2       1 <0>         0.5185
     18 O4         -3.0171   -8.5018    0.1726 O.2       1 <0>        -0.5107
     19 N2         -0.9494   -9.3059    0.1680 N.am      1 <0>        -0.5147
     20 N3         -1.4173  -10.6265    0.1586 N.am      1 <0>        -0.5165
     21 C14        -0.5421  -11.6514    0.1518 C.2       1 <0>         0.6134
     22 O5          0.6546  -11.4298    0.1539 O.2       1 <0>        -0.5221
     23 C15        -1.0316  -13.0330    0.1420 C.2       1 <0>        -0.2663
     24 C16        -0.3088  -14.2163    0.1397 C.2       1 <0>        -0.0511
     25 C17        -1.0539  -15.3710    0.1297 C.2       1 <0>        -0.1875
     26 C18        -2.4070  -15.2822    0.1228 C.2       1 <0>        -0.2110
     27 S1         -2.7113  -13.6301    0.1376 S.3       1 <0>         0.2180
     28 O6         -6.8888   -3.5757    0.4109 O.3       1 <0>        -0.3026
     29 C19        -7.1117   -4.9837    0.5097 C.3       1 <0>         0.0227
     30 O7         -6.3208   -0.8915    0.2148 O.3       1 <0>        -0.2940
     31 C20        -5.9572    0.4865    0.1103 C.3       1 <0>         0.0211
     32 H1          1.1132    1.5817   -1.3023 H         1 <0>         0.0662
     33 H2         -0.2450    1.0677   -2.3315 H         1 <0>         0.0637
     34 H3         -0.5613    1.9084   -0.7948 H         1 <0>         0.0637
     35 H4          0.7039   -0.8542   -1.0847 H         1 <0>         0.1035
     36 H5          0.4938   -0.9187    1.3852 H         1 <0>         0.0612
     37 H6          1.5447    0.4217    0.8681 H         1 <0>         0.0741
     38 H7         -0.1298    0.7484    1.3756 H         1 <0>         0.0629
     39 H8         -0.9212   -2.4013    0.3638 H         1 <0>         0.4270
     40 H9         -3.7803   -0.3112    0.0359 H         1 <0>         0.1714
     41 H10        -4.7999   -5.1396    0.3902 H         1 <0>         0.1581
     42 H11        -0.7153   -6.6834   -0.7037 H         1 <0>         0.1115
     43 H12        -0.7161   -6.6958    1.0763 H         1 <0>         0.1119
     44 H13         0.0044   -9.1293    0.1697 H         1 <0>         0.4372
     45 H14        -2.3710  -10.8031    0.1569 H         1 <0>         0.4333
     46 H15         0.7711  -14.2297    0.1452 H         1 <0>         0.1534
     47 H16        -0.5686  -16.3358    0.1269 H         1 <0>         0.1436
     48 H17        -3.1249  -16.0890    0.1142 H         1 <0>         0.1933
     49 H18        -6.7115   -5.4780   -0.3755 H         1 <0>         0.0583
     50 H19        -6.6118   -5.3692    1.3983 H         1 <0>         0.0575
     51 H20        -8.1818   -5.1780    0.5818 H         1 <0>         0.1036
     52 H21        -5.3187    0.7585    0.9508 H         1 <0>         0.0584
     53 H22        -5.4186    0.6504   -0.8230 H         1 <0>         0.0652
     54 H23        -6.8569    1.1017    0.1235 H         1 <0>         0.1060
@<TRIPOS>BOND
     1    1    2 1
     2    1   32 1
     3    1   33 1
     4    1   34 1
     5    2    3 1
     6    2    4 1
     7    2   35 1
     8    3   36 1
     9    3   37 1
    10    3   38 1
    11    4    5 2
    12    4    6 am
    13    6    7 1
    14    6   39 1
    15    7   12 ar
    16    7    8 ar
    17    8    9 ar
    18    8   40 1
    19    9   10 ar
    20    9   30 1
    21   10   11 ar
    22   10   28 1
    23   11   12 ar
    24   11   41 1
    25   12   13 1
    26   13   14 2
    27   13   15 1
    28   15   16 1
    29   16   17 1
    30   16   42 1
    31   16   43 1
    32   17   18 2
    33   17   19 am
    34   19   20 1
    35   19   44 1
    36   20   21 am
    37   20   45 1
    38   21   22 2
    39   21   23 1
    40   23   27 1
    41   23   24 2
    42   24   25 1
    43   24   46 1
    44   25   26 2
    45   25   47 1
    46   26   27 1
    47   26   48 1
    48   28   29 1
    49   29   49 1
    50   29   50 1
    51   29   51 1
    52   30   31 1
    53   31   52 1
    54   31   53 1
    55   31   54 1
@<TRIPOS>MOLECULE
ZINC58881602
   55    57     0     0     0
SMALL
USER_CHARGES

@<TRIPOS>ATOM
      1 C1          0.2225   -0.5999    1.2965 C.3       1 <0>         0.0255
      2 O1          0.0264   -0.0009    0.0140 O.3       1 <0>        -0.3157
      3 C2          0.6238   -0.6051   -1.0473 C.ar      1 <0>         0.1212
      4 C3          1.3780   -1.7541   -0.8568 C.ar      1 <0>        -0.1889
      5 C4          1.9853   -2.3681   -1.9339 C.ar      1 <0>        -0.0757
      6 C5          1.8409   -1.8355   -3.2088 C.ar      1 <0>         0.0972
      7 C6          1.0852   -0.6854   -3.3986 C.ar      1 <0>        -0.0937
      8 C7          0.4743   -0.0757   -2.3211 C.ar      1 <0>        -0.1315
      9 N1          2.4562   -2.4567   -4.3006 N.am      1 <0>        -0.6349
     10 C8          2.5938   -3.7972   -4.3237 C.2       1 <0>         0.5156
     11 O2          2.0997   -4.4735   -3.4446 O.2       1 <0>        -0.4992
     12 C9          3.3526   -4.4497   -5.4286 C.2       1 <0>         0.5300
     13 O3          3.8468   -3.7732   -6.3080 O.2       1 <0>        -0.4764
     14 N2          3.4901   -5.7902   -5.4517 N.am      1 <0>        -0.5578
     15 N3          4.2032   -6.4034   -6.4902 N.2       1 <0>        -0.2380
     16 C10         4.3358   -7.6957   -6.5125 C.2       1 <0>         0.1330
     17 C11         5.0858   -8.3405   -7.6045 C.ar      1 <0>        -0.1008
     18 C12         5.6604   -7.5635   -8.6146 C.ar      1 <0>        -0.0325
     19 C13         6.3612   -8.1710   -9.6335 C.ar      1 <0>        -0.1513
     20 C14         6.4972   -9.5533   -9.6580 C.ar      1 <0>         0.1503
     21 C15         5.9274  -10.3296   -8.6567 C.ar      1 <0>        -0.2167
     22 C16         5.2298   -9.7308   -7.6306 C.ar      1 <0>        -0.0417
     23 O4          7.1889  -10.1478  -10.6645 O.3       1 <0>        -0.2859
     24 C17         7.2902  -11.5727  -10.6288 C.3       1 <0>         0.0407
     25 C18         8.0866  -12.0496  -11.8160 C.2       1 <0>         0.5180
     26 O5          8.5244  -11.2482  -12.6141 O.2       1 <0>        -0.5085
     27 N4          8.3125  -13.3668  -11.9908 N.am      1 <0>        -0.7264
     28 C19         9.0867  -13.8304  -13.1449 C.3       1 <0>         0.2061
     29 C20         9.1935  -15.3331  -13.1072 C.2       1 <0>        -0.0456
     30 C21         8.3339  -16.1974  -13.6760 C.2       1 <0>        -0.1782
     31 C22         8.8139  -17.4972  -13.3949 C.2       1 <0>        -0.2186
     32 C23         9.9381  -17.3495  -12.6712 C.2       1 <0>        -0.0240
     33 O6         10.1663  -16.0365  -12.5050 O.3       1 <0>        -0.1713
     34 H1         -0.1636   -1.6191    1.2843 H         1 <0>         0.0570
     35 H2          1.2870   -0.6173    1.5304 H         1 <0>         0.0569
     36 H3         -0.3063   -0.0201    2.0530 H         1 <0>         0.1021
     37 H4          1.4902   -2.1680    0.1344 H         1 <0>         0.1344
     38 H5          2.5729   -3.2620   -1.7853 H         1 <0>         0.1377
     39 H6          0.9724   -0.2707   -4.3894 H         1 <0>         0.1379
     40 H7         -0.1165    0.8162   -2.4690 H         1 <0>         0.1392
     41 H8          2.7840   -1.9226   -5.0410 H         1 <0>         0.4250
     42 H9          3.0954   -6.3304   -4.7494 H         1 <0>         0.3998
     43 H10         3.8964   -8.2972   -5.7305 H         1 <0>         0.1256
     44 H11         5.5550   -6.4889   -8.5965 H         1 <0>         0.1448
     45 H12         6.8052   -7.5716  -10.4145 H         1 <0>         0.1397
     46 H13         6.0351  -11.4040   -8.6803 H         1 <0>         0.1342
     47 H14         4.7913  -10.3347   -6.8500 H         1 <0>         0.1345
     48 H15         7.7899  -11.8785   -9.7096 H         1 <0>         0.0981
     49 H16         6.2919  -12.0089  -10.6621 H         1 <0>         0.0982
     50 H17         7.9624  -14.0078  -11.3525 H         1 <0>         0.4059
     51 H18         8.5871  -13.5246  -14.0641 H         1 <0>         0.1036
     52 H19        10.0850  -13.3942  -13.1116 H         1 <0>         0.0895
     53 H20         7.4470  -15.9465  -14.2388 H         1 <0>         0.1522
     54 H21         8.3640  -18.4298  -13.7021 H         1 <0>         0.1525
     55 H22        10.5548  -18.1508  -12.2917 H         1 <0>         0.2068
@<TRIPOS>BOND
     1    1    2 1
     2    1   34 1
     3    1   35 1
     4    1   36 1
     5    2    3 1
     6    3    8 ar
     7    3    4 ar
     8    4    5 ar
     9    4   37 1
    10    5    6 ar
    11    5   38 1
    12    6    7 ar
    13    6    9 1
    14    7    8 ar
    15    7   39 1
    16    8   40 1
    17    9   10 am
    18    9   41 1
    19   10   11 2
    20   10   12 1
    21   12   13 2
    22   12   14 am
    23   14   15 1
    24   14   42 1
    25   15   16 2
    26   16   17 1
    27   16   43 1
    28   17   22 ar
    29   17   18 ar
    30   18   19 ar
    31   18   44 1
    32   19   20 ar
    33   19   45 1
    34   20   21 ar
    35   20   23 1
    36   21   22 ar
    37   21   46 1
    38   22   47 1
    39   23   24 1
    40   24   25 1
    41   24   48 1
    42   24   49 1
    43   25   26 2
    44   25   27 am
    45   27   28 1
    46   27   50 1
    47   28   29 1
    48   28   51 1
    49   28   52 1
    50   29   33 1
    51   29   30 2
    52   30   31 1
    53   30   53 1
    54   31   32 2
    55   31   54 1
    56   32   33 1
    57   32   55 1
@<TRIPOS>MOLECULE
ZINC06368732
   51    52     0     0     0
SMALL
USER_CHARGES
3-acetylamino-N-[3-[(4-methoxyphenyl)sulfamoyl]-4-methyl-phenyl]-propanamide
@<TRIPOS>ATOM
      1 C1         -4.0461    4.1554   -0.2802 C.3       1 <0>        -0.1463
      2 C2         -3.0122    3.0842   -0.0465 C.ar      1 <0>         0.0089
      3 C3         -1.6762    3.4260    0.0595 C.ar      1 <0>        -0.1179
      4 C4         -0.7269    2.4474    0.2788 C.ar      1 <0>        -0.0574
      5 C5         -1.1138    1.1175    0.3825 C.ar      1 <0>         0.1229
      6 C6         -2.4559    0.7776    0.2760 C.ar      1 <0>        -0.0454
      7 C7         -3.4012    1.7619    0.0619 C.ar      1 <0>        -0.6646
      8 S1         -5.1044    1.3316   -0.0739 S.o2      1 <0>         2.6939
      9 O1         -5.1760   -0.0833    0.0366 O.2       1 <0>        -0.9436
     10 O2         -5.8136    2.2007    0.7984 O.2       1 <0>        -0.9436
     11 N1         -5.5841    1.7110   -1.6128 N.pl3     1 <0>        -1.0543
     12 C8         -5.0611    1.0060   -2.7026 C.ar      1 <0>         0.1180
     13 C9         -3.6961    0.7642   -2.7831 C.ar      1 <0>        -0.1205
     14 C10        -3.1814    0.0633   -3.8561 C.ar      1 <0>        -0.1775
     15 C11        -4.0261   -0.3887   -4.8591 C.ar      1 <0>         0.1201
     16 C12        -5.3890   -0.1431   -4.7821 C.ar      1 <0>        -0.1269
     17 C13        -5.9061    0.5527   -3.7070 C.ar      1 <0>        -0.0868
     18 O3         -3.5178   -1.0736   -5.9184 O.3       1 <0>        -0.3149
     19 C14        -2.1054   -1.2907   -5.9332 C.3       1 <0>         0.0252
     20 N2         -0.1538    0.1229    0.5994 N.am      1 <0>        -0.6732
     21 C15         1.0791    0.2493    0.0697 C.2       1 <0>         0.5194
     22 O4          1.3300    1.1794   -0.6672 O.2       1 <0>        -0.5114
     23 C16         2.1457   -0.7649    0.3932 C.3       1 <0>        -0.1529
     24 C17         3.4409   -0.3913   -0.3307 C.3       1 <0>         0.1319
     25 N3          4.4779   -1.3773   -0.0163 N.am      1 <0>        -0.7369
     26 C18         5.7107   -1.2508   -0.5459 C.2       1 <0>         0.5100
     27 O5          5.9617   -0.3208   -1.2828 O.2       1 <0>        -0.5397
     28 C19         6.7774   -2.2650   -0.2225 C.3       1 <0>        -0.1747
     29 H1         -4.4762    4.4595    0.6741 H         1 <0>         0.1010
     30 H2         -3.5767    5.0154   -0.7578 H         1 <0>         0.0869
     31 H3         -4.8332    3.7659   -0.9258 H         1 <0>         0.0658
     32 H4         -1.3756    4.4598   -0.0253 H         1 <0>         0.1399
     33 H5          0.3156    2.7155    0.3660 H         1 <0>         0.1449
     34 H6         -2.7604   -0.2551    0.3603 H         1 <0>         0.1491
     35 H7         -6.2276    2.4220   -1.7588 H         1 <0>         0.4270
     36 H8         -3.0375    1.1206   -2.0048 H         1 <0>         0.1346
     37 H9         -2.1204   -0.1287   -3.9167 H         1 <0>         0.1336
     38 H10        -6.0461   -0.4957   -5.5634 H         1 <0>         0.1395
     39 H11        -6.9673    0.7439   -3.6472 H         1 <0>         0.1392
     40 H12        -1.5901   -0.3302   -5.9308 H         1 <0>         0.0568
     41 H13        -1.8162   -1.8604   -5.0501 H         1 <0>         0.0560
     42 H14        -1.8327   -1.8471   -6.8299 H         1 <0>         0.1027
     43 H15        -0.3768   -0.6595    1.1276 H         1 <0>         0.4159
     44 H16         2.3213   -0.7771    1.4689 H         1 <0>         0.1082
     45 H17         1.8191   -1.7523    0.0670 H         1 <0>         0.1072
     46 H18         3.2654   -0.3791   -1.4064 H         1 <0>         0.0780
     47 H19         3.7676    0.5961   -0.0046 H         1 <0>         0.0780
     48 H20         4.2771   -2.1211    0.5731 H         1 <0>         0.4016
     49 H21         6.4507   -3.2525   -0.5486 H         1 <0>         0.0891
     50 H22         7.7001   -1.9989   -0.7382 H         1 <0>         0.0941
     51 H23         6.9529   -2.2773    0.8532 H         1 <0>         0.0891
@<TRIPOS>BOND
     1    1    2 1
     2    1   29 1
     3    1   30 1
     4    1   31 1
     5    2    7 ar
     6    2    3 ar
     7    3    4 ar
     8    3   32 1
     9    4    5 ar
    10    4   33 1
    11    5    6 ar
    12    5   20 1
    13    6    7 ar
    14    6   34 1
    15    7    8 1
    16    8    9 2
    17    8   10 2
    18    8   11 1
    19   11   12 1
    20   11   35 1
    21   12   17 ar
    22   12   13 ar
    23   13   14 ar
    24   13   36 1
    25   14   15 ar
    26   14   37 1
    27   15   16 ar
    28   15   18 1
    29   16   17 ar
    30   16   38 1
    31   17   39 1
    32   18   19 1
    33   19   40 1
    34   19   41 1
    35   19   42 1
    36   20   21 am
    37   20   43 1
    38   21   22 2
    39   21   23 1
    40   23   24 1
    41   23   44 1
    42   23   45 1
    43   24   25 1
    44   24   46 1
    45   24   47 1
    46   25   26 am
    47   25   48 1
    48   26   27 2
    49   26   28 1
    50   28   49 1
    51   28   50 1
    52   28   51 1
@<TRIPOS>MOLECULE
ZINC11042168
   44    45     0     0     0
SMALL
USER_CHARGES
(3-chlorophenyl)methylcarbamoylmethyl 4-methoxy-3-sulfamoyl-benzoate
@<TRIPOS>ATOM
      1 C1          2.3062   -0.3068   -0.0225 C.3       1 <0>         0.0201
      2 O1          2.3651    1.1210   -0.0150 O.3       1 <0>        -0.3007
      3 C2          1.1825    1.7863    0.0004 C.ar      1 <0>         0.2566
      4 C3         -0.0126    1.0758    0.0080 C.ar      1 <0>        -0.2375
      5 C4         -1.2145    1.7468    0.0173 C.ar      1 <0>         0.0364
      6 C5         -1.2322    3.1448    0.0307 C.ar      1 <0>        -0.1836
      7 C6         -0.0285    3.8552    0.0230 C.ar      1 <0>         0.0855
      8 C7          1.1693    3.1762    0.0080 C.ar      1 <0>        -0.7205
      9 S1          2.6875    4.0704   -0.0012 S.o2      1 <0>         2.7111
     10 O2          3.4826    3.5101   -1.0370 O.2       1 <0>        -0.9478
     11 O3          2.3468    5.4494    0.0365 O.2       1 <0>        -0.9607
     12 N1          3.4618    3.7352    1.4238 N.pl3     1 <0>        -1.2450
     13 C8         -2.5174    3.8678    0.0469 C.2       1 <0>         0.5166
     14 O4         -2.5309    5.0828    0.0536 O.2       1 <0>        -0.4975
     15 O5         -3.6767    3.1811    0.0543 O.3       1 <0>        -0.3294
     16 C9         -4.9031    3.9583    0.0702 C.3       1 <0>         0.0497
     17 C10        -6.0879    3.0270    0.0765 C.2       1 <0>         0.5179
     18 O6         -5.9157    1.8265    0.0684 O.2       1 <0>        -0.5137
     19 N2         -7.3390    3.5282    0.0911 N.am      1 <0>        -0.7235
     20 C11        -8.4907    2.6228    0.0973 C.3       1 <0>         0.1649
     21 C12        -9.7636    3.4294    0.1138 C.ar      1 <0>        -0.1015
     22 C13       -10.3390    3.7880    1.3187 C.ar      1 <0>        -0.0949
     23 C14       -11.5039    4.5319    1.3347 C.ar      1 <0>        -0.1067
     24 C15       -12.0999    4.9088    0.1457 C.ar      1 <0>        -0.1000
     25 C16       -11.5275    4.5458   -1.0601 C.ar      1 <0>        -0.0369
     26 C17       -10.3585    3.8056   -1.0754 C.ar      1 <0>        -0.0912
     27 Cl1       -12.2758    5.0183   -2.5536 Cl        1 <0>        -0.0630
     28 H1          3.3179   -0.7121   -0.0347 H         1 <0>         0.1148
     29 H2          1.7865   -0.6537    0.8706 H         1 <0>         0.0677
     30 H3          1.7691   -0.6435   -0.9092 H         1 <0>         0.0687
     31 H4          0.0021   -0.0041    0.0020 H         1 <0>         0.1516
     32 H5         -2.1424    1.1942    0.0187 H         1 <0>         0.1558
     33 H6         -0.0379    4.9352    0.0286 H         1 <0>         0.1689
     34 H7          3.0524    3.1380    2.0694 H         1 <0>         0.4158
     35 H8          4.3247    4.1359    1.6128 H         1 <0>         0.4222
     36 H9         -4.9265    4.5820    0.9638 H         1 <0>         0.1068
     37 H10        -4.9435    4.5915   -0.8161 H         1 <0>         0.1068
     38 H11        -7.4767    4.4883    0.0976 H         1 <0>         0.4058
     39 H12        -8.4674    1.9991   -0.7963 H         1 <0>         0.0832
     40 H13        -8.4504    1.9896    0.9835 H         1 <0>         0.0846
     41 H14        -9.8761    3.4900    2.2479 H         1 <0>         0.1327
     42 H15       -11.9509    4.8150    2.2762 H         1 <0>         0.1368
     43 H16       -13.0125    5.4863    0.1583 H         1 <0>         0.1366
     44 H17        -9.9110    3.5222   -2.0166 H         1 <0>         0.1364
@<TRIPOS>BOND
     1    1    2 1
     2    1   28 1
     3    1   29 1
     4    1   30 1
     5    2    3 1
     6    3    8 ar
     7    3    4 ar
     8    4    5 ar
     9    4   31 1
    10    5    6 ar
    11    5   32 1
    12    6    7 ar
    13    6   13 1
    14    7    8 ar
    15    7   33 1
    16    8    9 1
    17    9   10 2
    18    9   11 2
    19    9   12 1
    20   12   34 1
    21   12   35 1
    22   13   14 2
    23   13   15 1
    24   15   16 1
    25   16   17 1
    26   16   36 1
    27   16   37 1
    28   17   18 2
    29   17   19 am
    30   19   20 1
    31   19   38 1
    32   20   21 1
    33   20   39 1
    34   20   40 1
    35   21   26 ar
    36   21   22 ar
    37   22   23 ar
    38   22   41 1
    39   23   24 ar
    40   23   42 1
    41   24   25 ar
    42   24   43 1
    43   25   26 ar
    44   25   27 1
    45   26   44 1
@<TRIPOS>MOLECULE
ZINC30864422
   50    52     0     0     0
SMALL
USER_CHARGES
N-[2-[(4-methoxyphenyl)sulfonylamino]ethyl]-2-(2-methyl-1H-indol-3-yl)-2-oxo-acetamide
@<TRIPOS>ATOM
      1 C1         -0.5404    7.4088   -7.0806 C.3       1 <0>        -0.1050
      2 C2         -2.0436    7.5013   -7.1338 C.2       1 <0>         0.1445
      3 C3         -2.8977    7.2073   -6.0876 C.2       1 <0>        -0.2625
      4 C4         -4.2635    7.4454   -6.5937 C.ar      1 <0>        -0.0589
      5 C5         -5.5337    7.3367   -6.0354 C.ar      1 <0>        -0.0823
      6 C6         -6.6419    7.6425   -6.7960 C.ar      1 <0>        -0.1318
      7 C7         -6.4940    8.0570   -8.1113 C.ar      1 <0>        -0.1035
      8 C8         -5.2418    8.1684   -8.6760 C.ar      1 <0>        -0.1197
      9 C9         -4.1114    7.8641   -7.9245 C.ar      1 <0>         0.0990
     10 N1         -2.7598    7.8801   -8.2077 N.pl3     1 <0>        -0.5830
     11 H1         -2.2477    8.1483   -9.1436 H         1 <0>         0.4471
     12 C10        -2.5234    6.7574   -4.7478 C.2       1 <0>         0.4429
     13 O1         -2.3958    7.5655   -3.8488 O.2       1 <0>        -0.4130
     14 C11        -2.2981    5.3065   -4.4841 C.2       1 <0>         0.4810
     15 O2         -2.5179    4.4900   -5.3550 O.2       1 <0>        -0.4958
     16 N2         -1.8504    4.9023   -3.2788 N.am      1 <0>        -0.7215
     17 C12        -1.6291    3.4774   -3.0198 C.3       1 <0>         0.1142
     18 C13        -1.1246    3.2918   -1.5874 C.3       1 <0>         0.1049
     19 N3         -0.9033    1.8669   -1.3284 N.pl3     1 <0>        -1.1209
     20 S1         -0.0177    1.3924   -0.0120 S.o2      1 <0>         2.7008
     21 O3         -0.0060   -0.0285   -0.0212 O.2       1 <0>        -0.9548
     22 O4          1.1754    2.1642   -0.0256 O.2       1 <0>        -0.9547
     23 C14        -0.9161    1.8794    1.4234 C.ar      1 <0>        -0.7234
     24 C15        -0.6957    3.1227    1.9868 C.ar      1 <0>         0.0192
     25 C16        -1.4029    3.5090    3.1088 C.ar      1 <0>        -0.2297
     26 C17        -2.3267    2.6440    3.6770 C.ar      1 <0>         0.1846
     27 C18        -2.5420    1.3948    3.1131 C.ar      1 <0>        -0.1722
     28 C19        -1.8363    1.0154    1.9877 C.ar      1 <0>         0.0198
     29 O5         -3.0200    3.0197    4.7838 O.3       1 <0>        -0.3097
     30 C20        -2.7469    4.3199    5.3100 C.3       1 <0>         0.0181
     31 H2         -0.2289    7.0738   -6.0802 H         1 <0>         0.0812
     32 H3         -0.1047    8.3972   -7.2885 H         1 <0>         0.0860
     33 H4         -0.1905    6.6879   -7.8342 H         1 <0>         0.0872
     34 H5         -5.6507    7.0141   -5.0113 H         1 <0>         0.1192
     35 H6         -7.6291    7.5589   -6.3661 H         1 <0>         0.1265
     36 H7         -7.3687    8.2943   -8.6987 H         1 <0>         0.1286
     37 H8         -5.1382    8.4914   -9.7014 H         1 <0>         0.1233
     38 H9         -1.6512    5.6422   -2.4896 H         1 <0>         0.4351
     39 H10        -2.5744    2.9300   -3.1494 H         1 <0>         0.0798
     40 H11        -0.8804    3.0884   -3.7256 H         1 <0>         0.0841
     41 H12        -0.1793    3.8392   -1.4578 H         1 <0>         0.0929
     42 H13        -1.8733    3.6808   -0.8816 H         1 <0>         0.0700
     43 H14        -1.4557    1.1107   -1.9055 H         1 <0>         0.4465
     44 H15         0.0268    3.7940    1.5467 H         1 <0>         0.1432
     45 H16        -1.2335    4.4820    3.5460 H         1 <0>         0.1395
     46 H17        -3.2604    0.7195    3.5537 H         1 <0>         0.1423
     47 H18        -2.0038    0.0432    1.5482 H         1 <0>         0.1480
     48 H19        -3.3716    4.4945    6.1984 H         1 <0>         0.1085
     49 H20        -2.9738    5.0792    4.5472 H         1 <0>         0.0622
     50 H21        -1.6851    4.3867    5.5895 H         1 <0>         0.0624
@<TRIPOS>BOND
     1    1    2 1
     2    1   31 1
     3    1   32 1
     4    1   33 1
     5    2   10 1
     6    2    3 2
     7    3    4 1
     8    3   12 1
     9    4    9 ar
    10    4    5 ar
    11    5    6 ar
    12    5   34 1
    13    6    7 ar
    14    6   35 1
    15    7    8 ar
    16    7   36 1
    17    8    9 ar
    18    8   37 1
    19    9   10 1
    20   10   11 1
    21   12   13 2
    22   12   14 1
    23   14   15 2
    24   14   16 am
    25   16   17 1
    26   16   38 1
    27   17   18 1
    28   17   39 1
    29   17   40 1
    30   18   19 1
    31   18   41 1
    32   18   42 1
    33   19   20 1
    34   19   43 1
    35   20   21 2
    36   20   22 2
    37   20   23 1
    38   23   28 ar
    39   23   24 ar
    40   24   25 ar
    41   24   44 1
    42   25   26 ar
    43   25   45 1
    44   26   27 ar
    45   26   29 1
    46   27   28 ar
    47   27   46 1
    48   28   47 1
    49   29   30 1
    50   30   48 1
    51   30   49 1
    52   30   50 1
@<TRIPOS>MOLECULE
ZINC49427192
   52    54     0     0     0
SMALL
USER_CHARGES

@<TRIPOS>ATOM
      1 C1          0.0101    1.4534   -0.0002 C.3       1 <0>         0.0244
      2 O1          0.0136    0.0244   -0.0089 O.3       1 <0>        -0.3138
      3 C2          0.6146   -0.5841   -1.0635 C.ar      1 <0>         0.1497
      4 C3          1.1946    0.1817   -2.0671 C.ar      1 <0>        -0.2187
      5 C4          1.8053   -0.4325   -3.1388 C.ar      1 <0>        -0.0269
      6 C5          1.8409   -1.8257   -3.2152 C.ar      1 <0>        -0.1059
      7 C6          1.2571   -2.5919   -2.2051 C.ar      1 <0>        -0.0469
      8 C7          0.6531   -1.9711   -1.1335 C.ar      1 <0>        -0.1579
      9 C8          2.4955   -2.4890   -4.3650 C.2       1 <0>         0.2310
     10 C9          2.5279   -3.8717   -4.4473 C.2       1 <0>        -0.2916
     11 C10         3.1600   -4.4604   -5.5563 C.2       1 <0>         0.5209
     12 O2          3.2121   -5.6742   -5.6706 O.2       1 <0>        -0.5360
     13 N1          3.7075   -3.6572   -6.4922 N.am      1 <0>        -0.5227
     14 C11         3.6461   -2.3169   -6.3593 C.2       1 <0>         0.3812
     15 N2          3.0585   -1.7542   -5.3401 N.2       1 <0>        -0.5361
     16 C12         4.3724   -4.2444   -7.6581 C.3       1 <0>         0.0870
     17 C13         3.3538   -4.4352   -8.7837 C.3       1 <0>        -0.1203
     18 C14         4.0482   -5.0484  -10.0014 C.3       1 <0>        -0.1361
     19 C15         3.0449   -5.2364  -11.1100 C.2       1 <0>         0.5131
     20 O3          1.8884   -4.9118  -10.9427 O.2       1 <0>        -0.5173
     21 N3          3.4329   -5.7652  -12.2875 N.am      1 <0>        -0.6615
     22 C16         2.4867   -6.0460  -13.2703 C.ar      1 <0>         0.2167
     23 C17         1.1663   -6.2916  -12.9178 C.ar      1 <0>        -0.1455
     24 C18         0.2304   -6.5701  -13.8933 C.ar      1 <0>        -0.0646
     25 C19         0.5988   -6.6065  -15.2285 C.ar      1 <0>        -0.1491
     26 C20         1.9044   -6.3648  -15.5971 C.ar      1 <0>        -0.0626
     27 C21         2.8617   -6.0763  -14.6216 C.ar      1 <0>        -0.1875
     28 C22         4.2599   -5.8106  -15.0097 C.2       1 <0>         0.5750
     29 O4          5.1091   -5.6536  -14.1538 O.2       1 <0>        -0.5525
     30 N4          4.5960   -5.7418  -16.3131 N.am      1 <0>        -0.8454
     31 H1          1.0368    1.8193   -0.0032 H         1 <0>         0.0586
     32 H2         -0.5092    1.8209   -0.8852 H         1 <0>         0.0586
     33 H3         -0.5001    1.8100    0.8947 H         1 <0>         0.1030
     34 H4          1.1664    1.2597   -2.0075 H         1 <0>         0.1343
     35 H5          2.2557    0.1634   -3.9188 H         1 <0>         0.1411
     36 H6          1.2825   -3.6702   -2.2613 H         1 <0>         0.1374
     37 H7          0.2051   -2.5634   -0.3494 H         1 <0>         0.1381
     38 H8          2.0787   -4.4823   -3.6780 H         1 <0>         0.1566
     39 H9          4.0915   -1.6925   -7.1197 H         1 <0>         0.2060
     40 H10         5.1673   -3.5795   -7.9962 H         1 <0>         0.1003
     41 H11         4.7979   -5.2102   -7.3856 H         1 <0>         0.1063
     42 H12         2.5590   -5.1000   -8.4456 H         1 <0>         0.0829
     43 H13         2.9283   -3.4694   -9.0562 H         1 <0>         0.0794
     44 H14         4.8430   -4.3836  -10.3395 H         1 <0>         0.1049
     45 H15         4.4737   -6.0142   -9.7288 H         1 <0>         0.1057
     46 H16         4.3710   -5.9502  -12.4504 H         1 <0>         0.4278
     47 H17         0.8714   -6.2651  -11.8792 H         1 <0>         0.1529
     48 H18        -0.7952   -6.7612  -13.6141 H         1 <0>         0.1329
     49 H19        -0.1410   -6.8258  -15.9842 H         1 <0>         0.1317
     50 H20         2.1864   -6.3948  -16.6391 H         1 <0>         0.1300
     51 H21         3.9185   -5.8670  -16.9959 H         1 <0>         0.4036
     52 H22         5.5154   -5.5670  -16.5683 H         1 <0>         0.4079
@<TRIPOS>BOND
     1    1    2 1
     2    1   31 1
     3    1   32 1
     4    1   33 1
     5    2    3 1
     6    3    8 ar
     7    3    4 ar
     8    4    5 ar
     9    4   34 1
    10    5    6 ar
    11    5   35 1
    12    6    7 ar
    13    6    9 1
    14    7    8 ar
    15    7   36 1
    16    8   37 1
    17    9   15 1
    18    9   10 2
    19   10   11 1
    20   10   38 1
    21   11   12 2
    22   11   13 am
    23   13   14 1
    24   13   16 1
    25   14   15 2
    26   14   39 1
    27   16   17 1
    28   16   40 1
    29   16   41 1
    30   17   18 1
    31   17   42 1
    32   17   43 1
    33   18   19 1
    34   18   44 1
    35   18   45 1
    36   19   20 2
    37   19   21 am
    38   21   22 1
    39   21   46 1
    40   22   27 ar
    41   22   23 ar
    42   23   24 ar
    43   23   47 1
    44   24   25 ar
    45   24   48 1
    46   25   26 ar
    47   25   49 1
    48   26   27 ar
    49   26   50 1
    50   27   28 1
    51   28   29 2
    52   28   30 am
    53   30   51 1
    54   30   52 1
@<TRIPOS>MOLECULE
ZINC41450031
   53    54     0     0     0
SMALL
USER_CHARGES

@<TRIPOS>ATOM
      1 C1          0.1690   -2.8706    0.3474 C.3       1 <0>         0.0856
      2 N1         -1.1992   -2.3972    0.5708 N.pl3     1 <0>        -1.0078
      3 C2         -2.1818   -3.2734    1.2136 C.3       1 <0>         0.0852
      4 S1         -1.6353   -0.8716    0.0967 S.o2      1 <0>         2.6875
      5 O1         -2.8195   -0.5470    0.8119 O.2       1 <0>        -0.9489
      6 O2         -0.4613   -0.0739    0.1651 O.2       1 <0>        -0.9357
      7 C3         -2.0837   -0.9630   -1.6048 C.ar      1 <0>        -0.6572
      8 C4         -2.3076   -2.1927   -2.1956 C.ar      1 <0>        -0.0351
      9 C5         -2.6593   -2.2644   -3.5303 C.ar      1 <0>        -0.1271
     10 C6         -2.7876   -1.1063   -4.2745 C.ar      1 <0>        -0.0674
     11 C7         -2.5647    0.1231   -3.6837 C.ar      1 <0>        -0.1129
     12 C8         -2.2171    0.1950   -2.3475 C.ar      1 <0>        -0.0097
     13 C9         -1.9791    1.5358   -1.7019 C.3       1 <0>         0.1532
     14 N2         -0.5393    1.7986   -1.6385 N.am      1 <0>        -0.7270
     15 C10        -0.0848    2.9235   -1.0514 C.2       1 <0>         0.7142
     16 O3         -0.8698    3.7201   -0.5744 O.2       1 <0>        -0.5940
     17 N3          1.2398    3.1653   -0.9931 N.am      1 <0>        -0.7378
     18 C11         1.7338    4.3879   -0.3549 C.3       1 <0>         0.1119
     19 C12         3.2620    4.4173   -0.4235 C.3       1 <0>         0.1450
     20 H1          3.5794    4.3979   -1.4661 H         1 <0>         0.1132
     21 C13         3.7702    5.6750    0.2330 C.ar      1 <0>        -0.1567
     22 C14         3.9681    5.7080    1.6010 C.ar      1 <0>        -0.0671
     23 C15         4.4334    6.8598    2.2053 C.ar      1 <0>        -0.1477
     24 C16         4.7027    7.9840    1.4382 C.ar      1 <0>         0.1320
     25 C17         4.5037    7.9482    0.0657 C.ar      1 <0>        -0.2061
     26 C18         4.0432    6.7923   -0.5345 C.ar      1 <0>        -0.0646
     27 O4          5.1601    9.1184    2.0303 O.3       1 <0>        -0.3168
     28 C19         5.4160   10.2370    1.1786 C.3       1 <0>         0.0260
     29 O5          3.7914    3.2776    0.2568 O.3       1 <0>        -0.5508
     30 H2          0.2837   -3.8660    0.7766 H         1 <0>         0.0848
     31 H3          0.3692   -2.9113   -0.7233 H         1 <0>         0.0593
     32 H4          0.8723   -2.1868    0.8228 H         1 <0>         0.0740
     33 H5         -2.1490   -3.1258    2.2930 H         1 <0>         0.0644
     34 H6         -3.1789   -3.0337    0.8442 H         1 <0>         0.0751
     35 H7         -1.9485   -4.3126    0.9817 H         1 <0>         0.0779
     36 H8         -2.2073   -3.0974   -1.6142 H         1 <0>         0.1359
     37 H9         -2.8335   -3.2251   -3.9919 H         1 <0>         0.1353
     38 H10        -3.0618   -1.1624   -5.3176 H         1 <0>         0.1359
     39 H11        -2.6646    1.0277   -4.2651 H         1 <0>         0.1383
     40 H12        -2.4649    2.3139   -2.2907 H         1 <0>         0.0939
     41 H13        -2.3925    1.5320   -0.6934 H         1 <0>         0.0750
     42 H14         0.0870    1.1631   -2.0191 H         1 <0>         0.4013
     43 H15         1.8661    2.5297   -1.3737 H         1 <0>         0.4015
     44 H16         1.3301    5.2573   -0.8738 H         1 <0>         0.0771
     45 H17         1.4165    4.4073    0.6877 H         1 <0>         0.0716
     46 H18         3.7583    4.8325    2.1977 H         1 <0>         0.1292
     47 H19         4.5871    6.8852    3.2740 H         1 <0>         0.1338
     48 H20         4.7126    8.8221   -0.5336 H         1 <0>         0.1307
     49 H21         3.8923    6.7625   -1.6035 H         1 <0>         0.1278
     50 H22         6.1714    9.9666    0.4409 H         1 <0>         0.0566
     51 H23         4.4961   10.5232    0.6686 H         1 <0>         0.0569
     52 H24         5.7755   11.0743    1.7767 H         1 <0>         0.1019
     53 H25         3.5486    3.2296    1.1916 H         1 <0>         0.3780
@<TRIPOS>BOND
     1    1    2 1
     2    1   30 1
     3    1   31 1
     4    1   32 1
     5    2    3 1
     6    2    4 1
     7    3   33 1
     8    3   34 1
     9    3   35 1
    10    4    5 2
    11    4    6 2
    12    4    7 1
    13    7   12 ar
    14    7    8 ar
    15    8    9 ar
    16    8   36 1
    17    9   10 ar
    18    9   37 1
    19   10   11 ar
    20   10   38 1
    21   11   12 ar
    22   11   39 1
    23   12   13 1
    24   13   14 1
    25   13   40 1
    26   13   41 1
    27   14   15 am
    28   14   42 1
    29   15   16 2
    30   15   17 am
    31   17   18 1
    32   17   43 1
    33   18   19 1
    34   18   44 1
    35   18   45 1
    36   19   20 1
    37   19   21 1
    38   19   29 1
    39   21   26 ar
    40   21   22 ar
    41   22   23 ar
    42   22   46 1
    43   23   24 ar
    44   23   47 1
    45   24   25 ar
    46   24   27 1
    47   25   26 ar
    48   25   48 1
    49   26   49 1
    50   27   28 1
    51   28   50 1
    52   28   51 1
    53   28   52 1
    54   29   53 1
@<TRIPOS>MOLECULE
ZINC04536198
   49    49     0     0     0
SMALL
USER_CHARGES
6-[1-(1-acetylamino-2-oxo-ethyl)-2,3,4-trihydroxy-butoxy]-4-hydroxy-5-sulfooxy-5,6-dihydro-4H-pyran-2-carboxylic acid
@<TRIPOS>ATOM
      1 C1          1.7975    1.4119    1.3255 C.3       1 <0>        -0.1651
      2 C2          0.4565    0.7330    1.2174 C.2       1 <0>         0.5176
      3 O1         -0.5393    1.2882    1.6310 O.2       1 <0>        -0.5450
      4 N1          0.3630   -0.4887    0.6559 N.am      1 <0>        -0.7088
      5 C3         -0.9407   -1.1486    0.5508 C.3       1 <0>         0.0941
      6 H1         -1.6488   -0.4629    0.3822 H         1 <0>         0.1183
      7 C4         -1.2411   -1.8752    1.8364 C.2       1 <0>         0.3422
      8 O2         -0.4480   -1.8449    2.7466 O.2       1 <0>        -0.4465
      9 C5         -0.9139   -2.1493   -0.6063 C.3       1 <0>         0.0551
     10 H2         -0.1421   -2.8967   -0.4225 H         1 <0>         0.1012
     11 C6         -0.6090   -1.4116   -1.9116 C.3       1 <0>         0.0761
     12 H3          0.3924   -0.9839   -1.8618 H         1 <0>         0.1091
     13 C7         -0.6865   -2.3934   -3.0824 C.3       1 <0>         0.0659
     14 H4         -1.6740   -2.8543   -3.1053 H         1 <0>         0.1193
     15 C8         -0.4432   -1.6437   -4.3937 C.3       1 <0>         0.0529
     16 O3         -0.6302   -2.5358   -5.4943 O.3       1 <0>        -0.5616
     17 O4          0.3083   -3.4065   -2.9212 O.3       1 <0>        -0.5405
     18 O5         -1.5645   -0.3663   -2.1024 O.3       1 <0>        -0.5488
     19 O6         -2.1856   -2.7930   -0.7089 O.3       1 <0>        -0.3369
     20 C9         -2.1082   -4.2117   -0.8620 C.3       1 <0>         0.2519
     21 H5         -1.4039   -4.4575   -1.6567 H         1 <0>         0.0972
     22 C10        -3.4948   -4.7709   -1.2086 C.3       1 <0>         0.0996
     23 H6         -3.8660   -4.2962   -2.1168 H         1 <0>         0.1176
     24 C11        -3.3612   -6.2810   -1.4313 C.3       1 <0>         0.1199
     25 H7         -2.8566   -6.4653   -2.3797 H         1 <0>         0.0659
     26 C12        -2.5582   -6.8837   -0.3106 C.2       1 <0>        -0.2902
     27 C13        -1.7946   -6.1508    0.4864 C.2       1 <0>         0.0892
     28 O7         -1.6777   -4.8062    0.3656 O.3       1 <0>        -0.3084
     29 C14        -1.0373   -6.8292    1.5528 C.2       1 <0>         0.5066
     30 O8         -1.1215   -8.0341    1.6857 O.co2     1 <0>        -0.6197
     31 O9         -4.6605   -6.8752   -1.4594 O.3       1 <0>        -0.4907
     32 O10        -4.3985   -4.5209   -0.1303 O.3       1 <0>        -0.7465
     33 S1         -5.8245   -4.2262   -0.5734 S.o2      1 <0>         2.7667
     34 O11        -6.5300   -3.8013    0.5846 O.2       1 <0>        -1.0737
     35 O12        -5.7290   -3.4259   -1.7437 O.2       1 <0>        -1.1029
     36 H8          2.5665    0.7672    0.8999 H         1 <0>         0.0743
     37 H9          1.7721    2.3556    0.7806 H         1 <0>         0.0914
     38 H10         2.0240    1.6039    2.3743 H         1 <0>         0.0934
     39 H11         1.1588   -0.9309    0.3215 H         1 <0>         0.4000
     40 H12        -2.1656   -2.4230    1.9438 H         1 <0>         0.1178
     41 H13        -1.1464   -0.8148   -4.4743 H         1 <0>         0.0656
     42 H14         0.5762   -1.2580   -4.4079 H         1 <0>         0.0448
     43 H15        -0.4918   -2.1272   -6.3597 H         1 <0>         0.3749
     44 H16         1.2136   -3.0677   -2.8924 H         1 <0>         0.3711
     45 H17        -2.4794   -0.6747   -2.1560 H         1 <0>         0.3929
     46 H18        -2.6061   -7.9506   -0.1501 H         1 <0>         0.1371
     47 H19        -4.6523   -7.8323   -1.5972 H         1 <0>         0.3623
     48 O13        -0.2511   -6.1132    2.3810 O.co2     1 <0>        -0.7375
     49 O14        -6.4454   -5.5486   -1.0002 O.3       1 <0>        -1.0692
@<TRIPOS>BOND
     1    1    2 1
     2    1   36 1
     3    1   37 1
     4    1   38 1
     5    2    3 2
     6    2    4 am
     7    4    5 1
     8    4   39 1
     9    5    6 1
    10    5    7 1
    11    5    9 1
    12    7    8 2
    13    7   40 1
    14    9   10 1
    15    9   11 1
    16    9   19 1
    17   11   12 1
    18   11   13 1
    19   11   18 1
    20   13   14 1
    21   13   15 1
    22   13   17 1
    23   15   16 1
    24   15   41 1
    25   15   42 1
    26   16   43 1
    27   17   44 1
    28   18   45 1
    29   19   20 1
    30   20   21 1
    31   20   28 1
    32   20   22 1
    33   22   23 1
    34   22   24 1
    35   22   32 1
    36   24   25 1
    37   24   26 1
    38   24   31 1
    39   26   27 2
    40   26   46 1
    41   27   28 1
    42   27   29 1
    43   29   30 2
    44   29   48 1
    45   31   47 1
    46   32   33 1
    47   33   34 2
    48   33   35 2
    49   33   49 1
@<TRIPOS>MOLECULE
ZINC21986039
   48    50     0     0     0
SMALL
USER_CHARGES
(6R,7R)-3-(carbamoyloxymethyl)-7-[[(E)-3-methoxy-2-(6H-pyran-2-yl)prop-2-enoyl]amino]-8-oxo-5-thia-1-azabicyclo[4.2.0]oct-2-ene-2-carboxylic acid
@<TRIPOS>ATOM
      1 C1          7.2410    4.6712    5.5507 C.3       1 <0>         0.0212
      2 O1          6.4363    3.6071    4.9777 O.3       1 <0>        -0.3091
      3 C2          5.7785    3.8850    3.8363 C.2       1 <0>         0.1606
      4 C3          5.0065    2.9322    3.2466 C.2       1 <0>        -0.2192
      5 C4          4.8904    1.5963    3.8572 C.2       1 <0>         0.1389
      6 C5          4.3388    1.4521    5.0893 C.2       1 <0>        -0.2110
      7 C6          4.2388    0.1050    5.6624 C.2       1 <0>        -0.0921
      8 C7          4.9888   -0.8701    5.1353 C.2       1 <0>        -0.2247
      9 C8          5.9043   -0.5520    3.9797 C.3       1 <0>         0.1029
     10 O2          5.3390    0.4996    3.1952 O.3       1 <0>        -0.3071
     11 C9          4.2884    3.2357    2.0004 C.2       1 <0>         0.5876
     12 O3          4.4574    4.3054    1.4459 O.2       1 <0>        -0.5518
     13 N1          3.4427    2.3290    1.4720 N.am      1 <0>        -0.7144
     14 C10         2.8132    2.5837    0.1739 C.3       1 <0>         0.1139
     15 H1          3.5609    3.2929   -0.2107 H         1 <0>         0.1548
     16 C11         2.3996    1.3159   -0.5658 C.3       1 <0>         0.1341
     17 H2          2.7069    1.2888   -1.6216 H         1 <0>         0.1500
     18 N2          1.0066    1.6650   -0.1350 N.am      1 <0>        -0.5517
     19 C12         1.3312    2.9054    0.2668 C.2       1 <0>         0.5411
     20 O4          0.6947    3.8898    0.5785 O.2       1 <0>        -0.4359
     21 C13        -0.0985    0.7999   -0.1163 C.2       1 <0>         0.1063
     22 C14         0.0783   -0.5125   -0.1097 C.2       1 <0>        -0.1668
     23 C15         1.3605   -1.2769   -0.1725 C.3       1 <0>        -0.0150
     24 S1          2.7901   -0.2491    0.2869 S.3       1 <0>        -0.2397
     25 C16        -1.1767   -1.3428   -0.0288 C.3       1 <0>         0.1570
     26 O5         -0.8221   -2.7457    0.0908 O.3       1 <0>        -0.3965
     27 C17        -1.8324   -3.6354    0.0708 C.2       1 <0>         0.6482
     28 O6         -2.9836   -3.2471    0.0496 O.2       1 <0>        -0.5715
     29 N3         -1.5668   -4.9568    0.0744 N.am      1 <0>        -0.8621
     30 C18        -1.4639    1.3554   -0.1101 C.2       1 <0>         0.4828
     31 O7         -1.6318    2.5537    0.0009 O.co2     1 <0>        -0.5933
     32 O8         -2.5260    0.5341   -0.2275 O.co2     1 <0>        -0.7180
     33 H3          7.7200    4.3123    6.4736 H         1 <0>         0.1049
     34 H4          6.5979    5.5330    5.7825 H         1 <0>         0.0657
     35 H5          8.0147    4.9744    4.8300 H         1 <0>         0.0646
     36 H6          5.8652    4.8824    3.3805 H         1 <0>         0.1583
     37 H7          3.9777    2.3351    5.6370 H         1 <0>         0.1322
     38 H8          3.5671   -0.1127    6.5059 H         1 <0>         0.1270
     39 H9          4.9331   -1.8894    5.5451 H         1 <0>         0.1280
     40 H10         6.8843   -0.2340    4.3651 H         1 <0>         0.0590
     41 H11         6.0296   -1.4478    3.3538 H         1 <0>         0.1122
     42 H12         3.2252    1.3977    2.0155 H         1 <0>         0.4343
     43 H13         1.3134   -2.1294    0.5210 H         1 <0>         0.1271
     44 H14         1.5177   -1.6458   -1.1968 H         1 <0>         0.0971
     45 H15        -1.7629   -1.0366    0.8502 H         1 <0>         0.1007
     46 H16        -1.7753   -1.1923   -0.9393 H         1 <0>         0.1073
     47 H17        -2.3922   -5.6837    0.0581 H         1 <0>         0.4417
     48 H18        -0.5246   -5.3083    0.0937 H         1 <0>         0.4205
@<TRIPOS>BOND
     1    1    2 1
     2    1   33 1
     3    1   34 1
     4    1   35 1
     5    2    3 1
     6    3    4 2
     7    3   36 1
     8    4    5 1
     9    4   11 1
    10    5   10 1
    11    5    6 2
    12    6    7 1
    13    6   37 1
    14    7    8 2
    15    7   38 1
    16    8    9 1
    17    8   39 1
    18    9   10 1
    19    9   40 1
    20    9   41 1
    21   11   12 2
    22   11   13 am
    23   13   14 1
    24   13   42 1
    25   14   15 1
    26   14   19 1
    27   14   16 1
    28   16   17 1
    29   16   24 1
    30   16   18 1
    31   18   19 am
    32   18   21 1
    33   19   20 2
    34   21   22 2
    35   21   30 1
    36   22   23 1
    37   22   25 1
    38   23   24 1
    39   23   43 1
    40   23   44 1
    41   25   26 1
    42   25   45 1
    43   25   46 1
    44   26   27 1
    45   27   28 2
    46   27   29 am
    47   29   47 1
    48   29   48 1
    49   30   31 2
    50   30   32 1
@<TRIPOS>MOLECULE
ZINC13831159
   42    43     0     0     0
SMALL
USER_CHARGES

@<TRIPOS>ATOM
      1 C1          0.0355    1.7741   -0.4155 C.2       1 <0>        -0.1447
      2 C2          1.3236    2.0569   -0.0466 C.2       1 <0>         0.0764
      3 N1          2.1441    1.0550    0.2667 N.2       1 <0>        -0.5209
      4 C3          1.7365   -0.1993    0.2271 C.2       1 <0>         0.3613
      5 S1          0.0383   -0.0097   -0.2965 S.3       1 <0>        -0.0340
      6 N2          2.4394   -1.3572    0.5147 N.pl3     1 <0>        -0.8046
      7 C4          1.7980    3.4565    0.0030 C.2       1 <0>         0.1582
      8 N3          0.9444    4.4371   -0.0824 N.2       1 <0>        -0.2957
      9 O1         -0.4458    4.1685   -0.0708 O.3       1 <0>        -0.1729
     10 C5         -1.2641    5.3358   -0.1709 C.3       1 <0>        -0.0066
     11 C6         -2.7165    4.9344   -0.1490 C.2       1 <0>         0.5079
     12 O2         -3.0225    3.7579   -0.0563 O.co2     1 <0>        -0.6769
     13 O3         -3.5856    5.7863   -0.2241 O.co2     1 <0>        -0.6843
     14 C7          3.2443    3.7439    0.1497 C.2       1 <0>         0.5895
     15 O4          4.0404    2.8294    0.2293 O.2       1 <0>        -0.4808
     16 N4          3.6767    5.0196    0.1949 N.am      1 <0>        -0.7058
     17 C8          5.1066    5.3037    0.3400 C.3       1 <0>         0.1018
     18 H1          5.7342    4.4930   -0.0302 H         1 <0>         0.1467
     19 C9          5.5090    6.6779   -0.2049 C.3       1 <0>         0.1434
     20 H2          6.3774    6.6591   -0.8634 H         1 <0>         0.1382
     21 N5          5.8266    6.9670    1.1984 N.am      1 <0>        -0.9596
     22 C10         5.4851    5.7656    1.7261 C.2       1 <0>         0.5518
     23 O5          5.4831    5.2723    2.8341 O.2       1 <0>        -0.4499
     24 S2          6.4213    8.3362    1.9153 S.o2      1 <0>         2.7489
     25 O6          7.1925    7.9068    3.0715 O.2       1 <0>        -1.0615
     26 O7          7.2522    9.0043    0.9257 O.2       1 <0>        -1.0597
     27 O8          5.2744    9.1454    2.2972 O.3       1 <0>        -1.0641
     28 C11         4.3431    7.4935   -0.7672 C.3       1 <0>         0.0717
     29 O9          4.8424    8.6988   -1.3503 O.3       1 <0>        -0.3467
     30 C12         3.9381    9.5349   -1.8943 C.2       1 <0>         0.6515
     31 O10         2.7573    9.2491   -1.8745 O.2       1 <0>        -0.5698
     32 N6          4.3427   10.6890   -2.4609 N.am      1 <0>        -0.8266
     33 H3         -0.7634    2.4444   -0.6964 H         1 <0>         0.2293
     34 H4          3.3680   -1.3052    0.7901 H         1 <0>         0.4147
     35 H5          2.0031   -2.2204    0.4406 H         1 <0>         0.4147
     36 H6         -1.0573    5.9977    0.6700 H         1 <0>         0.0630
     37 H7         -1.0445    5.8545   -1.1041 H         1 <0>         0.0627
     38 H8          3.0412    5.7497    0.1313 H         1 <0>         0.4156
     39 H9          3.8246    6.9096   -1.5277 H         1 <0>         0.0976
     40 H10         3.6501    7.7392    0.0375 H         1 <0>         0.0885
     41 H11         5.2853   10.9172   -2.4767 H         1 <0>         0.4095
     42 H12         3.6912   11.2914   -2.8528 H         1 <0>         0.4224
@<TRIPOS>BOND
     1    1    5 1
     2    1    2 2
     3    1   33 1
     4    2    3 1
     5    2    7 1
     6    3    4 2
     7    4    5 1
     8    4    6 1
     9    6   34 1
    10    6   35 1
    11    7    8 2
    12    7   14 1
    13    8    9 1
    14    9   10 1
    15   10   11 1
    16   10   36 1
    17   10   37 1
    18   11   12 2
    19   11   13 1
    20   14   15 2
    21   14   16 am
    22   16   17 1
    23   16   38 1
    24   17   18 1
    25   17   22 1
    26   17   19 1
    27   19   20 1
    28   19   21 1
    29   19   28 1
    30   21   22 am
    31   21   24 1
    32   22   23 2
    33   24   25 2
    34   24   26 2
    35   24   27 1
    36   28   29 1
    37   28   39 1
    38   28   40 1
    39   29   30 1
    40   30   31 2
    41   30   32 am
    42   32   41 1
    43   32   42 1
@<TRIPOS>MOLECULE
ZINC54807054
   49    49     0     0     0
SMALL
USER_CHARGES

@<TRIPOS>ATOM
      1 C1         -0.0173    1.4248    0.0099 C.3       1 <0>         0.0322
      2 O1          0.0021   -0.0041    0.0020 O.3       1 <0>        -0.3940
      3 C2         -1.2953   -0.6030    0.0112 C.3       1 <0>         0.0658
      4 C3         -1.1538   -2.1264    0.0017 C.3       1 <0>        -0.1321
      5 C4         -2.5429   -2.7677    0.0115 C.3       1 <0>         0.1347
      6 N1         -2.4075   -4.2264    0.0023 N.pl3     1 <0>        -0.7349
      7 C5         -3.5167   -5.0120    0.0087 C.2       1 <0>         0.5562
      8 O2         -4.7392   -4.4499    0.0234 O.3       1 <0>        -0.6392
      9 C6         -3.3874   -6.4042    0.0000 C.2       1 <0>        -0.4505
     10 C7         -2.0865   -7.0024   -0.0156 C.1       1 <0>         0.2970
     11 N2         -1.0544   -7.4770   -0.0280 N.1       1 <0>        -0.5384
     12 C8         -4.5371   -7.2185    0.0066 C.2       1 <0>         0.4129
     13 O3         -5.6410   -6.7110    0.0199 O.2       1 <0>        -0.5049
     14 C9         -4.3978   -8.7191   -0.0028 C.3       1 <0>         0.0971
     15 N3         -5.7279   -9.3331    0.0066 N.am      1 <0>        -0.7292
     16 C10        -5.8506  -10.6752    0.0006 C.2       1 <0>         0.7021
     17 O4         -4.8573  -11.3764   -0.0127 O.2       1 <0>        -0.5987
     18 N4         -7.0742  -11.2401    0.0092 N.am      1 <0>        -0.7476
     19 C11        -7.2076  -12.6990    0.0027 C.3       1 <0>         0.1655
     20 C12        -7.1425  -13.2106   -1.4378 C.3       1 <0>        -0.1312
     21 C13        -7.2818  -14.7343   -1.4446 C.3       1 <0>        -0.1167
     22 C14        -8.6242  -15.1265   -0.8243 C.3       1 <0>        -0.1210
     23 C15        -8.6893  -14.6149    0.6162 C.3       1 <0>        -0.1150
     24 C16        -8.5500  -13.0912    0.6231 C.3       1 <0>        -0.1267
     25 H1          1.0053    1.8021    0.0021 H         1 <0>         0.0835
     26 H2         -0.5445    1.7859   -0.8732 H         1 <0>         0.0404
     27 H3         -0.5275    1.7763    0.9067 H         1 <0>         0.0404
     28 H4         -1.8320   -0.2936    0.9080 H         1 <0>         0.0527
     29 H5         -1.8490   -0.2840   -0.8718 H         1 <0>         0.0527
     30 H6         -0.6171   -2.4359   -0.8952 H         1 <0>         0.0743
     31 H7         -0.6001   -2.4454    0.8847 H         1 <0>         0.0743
     32 H8         -3.0796   -2.4582    0.9083 H         1 <0>         0.0608
     33 H9         -3.0966   -2.4487   -0.8716 H         1 <0>         0.0608
     34 H10        -1.5262   -4.6316   -0.0082 H         1 <0>         0.3910
     35 H11        -3.8611   -9.0285   -0.8996 H         1 <0>         0.0791
     36 H12        -3.8441   -9.0381    0.8803 H         1 <0>         0.0791
     37 H13        -6.5202   -8.7737    0.0172 H         1 <0>         0.4041
     38 H14        -7.8666  -10.6807    0.0198 H         1 <0>         0.3946
     39 H15        -6.3967  -13.1406    0.5820 H         1 <0>         0.0861
     40 H16        -7.9533  -12.7690   -2.0171 H         1 <0>         0.0612
     41 H17        -6.1861  -12.9312   -1.8797 H         1 <0>         0.0691
     42 H18        -7.2354  -15.0987   -2.4708 H         1 <0>         0.0621
     43 H19        -6.4709  -15.1758   -0.8653 H         1 <0>         0.0638
     44 H20        -9.4351  -14.6849   -1.4036 H         1 <0>         0.0615
     45 H21        -8.7235  -16.2119   -0.8291 H         1 <0>         0.0608
     46 H22        -9.6457  -14.8943    1.0582 H         1 <0>         0.0645
     47 H23        -7.8785  -15.0564    1.1956 H         1 <0>         0.0646
     48 H24        -8.5964  -12.7268    1.6493 H         1 <0>         0.0684
     49 H25        -9.3609  -12.6497    0.0437 H         1 <0>         0.0668
@<TRIPOS>BOND
     1    1    2 1
     2    1   25 1
     3    1   26 1
     4    1   27 1
     5    2    3 1
     6    3    4 1
     7    3   28 1
     8    3   29 1
     9    4    5 1
    10    4   30 1
    11    4   31 1
    12    5    6 1
    13    5   32 1
    14    5   33 1
    15    6    7 1
    16    6   34 1
    17    7    8 1
    18    7    9 2
    19    9   10 1
    20    9   12 1
    21   10   11 3
    22   12   13 2
    23   12   14 1
    24   14   15 1
    25   14   35 1
    26   14   36 1
    27   15   16 am
    28   15   37 1
    29   16   17 2
    30   16   18 am
    31   18   19 1
    32   18   38 1
    33   19   24 1
    34   19   20 1
    35   19   39 1
    36   20   21 1
    37   20   40 1
    38   20   41 1
    39   21   22 1
    40   21   42 1
    41   21   43 1
    42   22   23 1
    43   22   44 1
    44   22   45 1
    45   23   24 1
    46   23   46 1
    47   23   47 1
    48   24   48 1
    49   24   49 1
@<TRIPOS>MOLECULE
ZINC19819317
   48    50     0     0     0
SMALL
USER_CHARGES

@<TRIPOS>ATOM
      1 C1          0.0882    1.2555    0.5927 C.3       1 <0>        -0.1456
      2 C2          0.0434   -0.2733    0.5508 C.3       1 <0>        -0.0420
      3 C3         -1.3870   -0.7306    0.4248 C.2       1 <0>         0.2889
      4 N1         -2.3687   -0.4011    1.2219 N.2       1 <0>        -0.5148
      5 C4         -3.5022   -0.9881    0.8121 C.2       1 <0>         0.4162
      6 N2         -3.2419   -1.7029   -0.2620 N.2       1 <0>        -0.3369
      7 N3         -1.8728   -1.5432   -0.5310 N.pl3     1 <0>        -0.4958
      8 N4         -4.7305   -0.8648    1.4134 N.2       1 <0>        -0.4744
      9 C5         -5.7749   -1.3849    0.8608 C.2       1 <0>         0.2981
     10 C6         -7.1420   -1.1242    1.4389 C.3       1 <0>        -0.0515
     11 C7         -7.9638   -0.3378    0.4503 C.2       1 <0>         0.4331
     12 O1         -9.2287    0.0124    0.7537 O.3       1 <0>        -0.6632
     13 N5         -7.4512    0.0031   -0.6972 N.2       1 <0>        -0.6614
     14 C8         -8.1948    0.7146   -1.5916 C.2       1 <0>         0.5197
     15 N6         -9.4394    1.1202   -1.4212 N.2       1 <0>        -0.5534
     16 H1         -6.9175    0.9937   -3.2170 H         1 <0>         0.4215
     17 C9         -9.8458    1.7867   -2.4995 C.2       1 <0>         0.2158
     18 N7         -8.8765    1.8210   -3.3756 N.2       1 <0>        -0.3740
     19 N8         -7.7871    1.1372   -2.8120 N.pl3     1 <0>        -0.5181
     20 C10       -11.2085    2.4038   -2.6815 C.3       1 <0>        -0.0215
     21 C11       -11.1899    3.8433   -2.1633 C.3       1 <0>        -0.1393
     22 C12        -5.6269   -2.2527   -0.3624 C.3       1 <0>        -0.1187
     23 C13        -5.4340   -3.6865    0.0593 C.ar      1 <0>        -0.0601
     24 C14        -4.1614   -4.2220    0.1262 C.ar      1 <0>        -0.1157
     25 C15        -3.9844   -5.5373    0.5131 C.ar      1 <0>        -0.1298
     26 C16        -5.0800   -6.3169    0.8334 C.ar      1 <0>        -0.1287
     27 C17        -6.3526   -5.7812    0.7674 C.ar      1 <0>        -0.1219
     28 C18        -6.5293   -4.4646    0.3847 C.ar      1 <0>        -0.1148
     29 H2          1.1228    1.5862    0.6839 H         1 <0>         0.0654
     30 H3         -0.3420    1.6569   -0.3248 H         1 <0>         0.0557
     31 H4         -0.4841    1.6124    1.4489 H         1 <0>         0.0727
     32 H5          0.6158   -0.6303   -0.3054 H         1 <0>         0.0836
     33 H6          0.4736   -0.6747    1.4684 H         1 <0>         0.0977
     34 H7         -7.6352   -2.0735    1.6476 H         1 <0>         0.1048
     35 H8         -7.0431   -0.5551    2.3632 H         1 <0>         0.1042
     36 H9        -11.4699    2.4019   -3.7397 H         1 <0>         0.0713
     37 H10       -11.9462    1.8265   -2.1240 H         1 <0>         0.0810
     38 H11       -12.1755    4.2896   -2.2949 H         1 <0>         0.0556
     39 H12       -10.9285    3.8451   -1.1051 H         1 <0>         0.0587
     40 H13       -10.4522    4.4205   -2.7207 H         1 <0>         0.0509
     41 H14        -6.5243   -2.1720   -0.9758 H         1 <0>         0.1060
     42 H15        -4.7621   -1.9239   -0.9387 H         1 <0>         0.1354
     43 H16        -3.3054   -3.6129   -0.1241 H         1 <0>         0.1378
     44 H17        -2.9901   -5.9559    0.5646 H         1 <0>         0.1129
     45 H18        -4.9418   -7.3447    1.1350 H         1 <0>         0.1152
     46 H19        -7.2086   -6.3904    1.0174 H         1 <0>         0.1197
     47 H20        -7.5232   -4.0449    0.3367 H         1 <0>         0.1256
     48 H21        -1.3748   -1.9420   -1.2616 H         1 <0>         0.4342
@<TRIPOS>BOND
     1    1    2 1
     2    1   29 1
     3    1   30 1
     4    1   31 1
     5    2    3 1
     6    2   32 1
     7    2   33 1
     8    3    7 1
     9    3    4 2
    10    4    5 1
    11    5    6 2
    12    5    8 1
    13    6    7 1
    14    7   48 1
    15    8    9 2
    16    9   22 1
    17    9   10 1
    18   10   11 1
    19   10   35 1
    20   10   34 1
    21   11   12 1
    22   11   13 2
    23   13   14 1
    24   14   15 2
    25   14   19 1
    26   15   17 1
    27   16   19 1
    28   17   20 1
    29   17   18 2
    30   18   19 1
    31   20   21 1
    32   20   36 1
    33   20   37 1
    34   21   38 1
    35   21   39 1
    36   21   40 1
    37   22   23 1
    38   22   41 1
    39   22   42 1
    40   23   28 ar
    41   23   24 ar
    42   24   25 ar
    43   24   43 1
    44   25   26 ar
    45   25   44 1
    46   26   27 ar
    47   26   45 1
    48   27   28 ar
    49   27   46 1
    50   28   47 1
@<TRIPOS>MOLECULE
ZINC01869196
   48    51     0     0     0
SMALL
USER_CHARGES
2-[[1-(4-amino-1,2,5-oxadiazol-3-yl)-5-(phenylsulfanylmethyl)triazol-4-yl]carbonylaminoiminomethyl]benzoic acid
@<TRIPOS>ATOM
      1 C1         -0.5116   13.6682   -2.0809 C.ar      1 <0>        -0.1249
      2 C2         -0.0235   13.2230   -3.2960 C.ar      1 <0>        -0.1006
      3 C3          1.0535   12.3599   -3.3348 C.ar      1 <0>        -0.0979
      4 C4          1.6469   11.9381   -2.1510 C.ar      1 <0>        -0.0749
      5 C5          1.1498   12.3826   -0.9317 C.ar      1 <0>        -0.1252
      6 C6          0.0766   13.2509   -0.9008 C.ar      1 <0>        -0.0969
      7 S1          3.0215   10.8367   -2.1957 S.3       1 <0>        -0.0677
      8 C7          3.4370   10.5823   -0.4483 C.3       1 <0>        -0.0706
      9 C8          4.6133    9.6463   -0.3428 C.2       1 <0>         0.1649
     10 C9          4.5647    8.2842   -0.2480 C.2       1 <0>        -0.0505
     11 N1          5.8232    7.8177   -0.1683 N.2       1 <0>        -0.1637
     12 N2          6.6521    8.8017   -0.2161 N.2       1 <0>        -0.0418
     13 N3          5.9196    9.9924   -0.3244 N.pl3     1 <0>        -0.3040
     14 C10         6.4407   11.2891   -0.3990 C.2       1 <0>         0.2941
     15 C11         7.8624   11.6447   -0.3775 C.2       1 <0>         0.3604
     16 N4          7.9619   12.9426   -0.4660 N.2       1 <0>        -0.3378
     17 O1          6.6510   13.4737   -0.5465 O.3       1 <0>         0.0555
     18 N5          5.7449   12.3855   -0.5050 N.2       1 <0>        -0.2509
     19 N6          8.9235   10.7517   -0.2791 N.pl3     1 <0>        -0.8020
     20 C12         3.3389    7.4646   -0.2298 C.2       1 <0>         0.6066
     21 O2          2.2489    7.9991   -0.3030 O.2       1 <0>        -0.4375
     22 N7          3.4265    6.1232   -0.1321 N.am      1 <0>        -0.5748
     23 N8          2.2619    5.3446   -0.1149 N.2       1 <0>        -0.1350
     24 C13         2.3464    4.0517   -0.0207 C.2       1 <0>         0.0751
     25 C14         1.1230    3.2338   -0.0025 C.ar      1 <0>        -0.0435
     26 C15         1.2084    1.8405   -0.0201 C.ar      1 <0>        -0.1022
     27 C16         0.0587    1.0792   -0.0024 C.ar      1 <0>        -0.1418
     28 C17        -1.1867    1.6869    0.0273 C.ar      1 <0>        -0.1162
     29 C18        -1.2943    3.0616    0.0504 C.ar      1 <0>        -0.1024
     30 C19        -0.1442    3.8518    0.0332 C.ar      1 <0>        -0.0586
     31 C20        -0.2530    5.3216    0.0516 C.2       1 <0>         0.4988
     32 O3          0.3203    5.9626    0.9100 O.co2     1 <0>        -0.5934
     33 H1         -1.3539   14.3436   -2.0535 H         1 <0>         0.1242
     34 H2         -0.4851   13.5512   -4.2155 H         1 <0>         0.1273
     35 H3          1.4342   12.0127   -4.2840 H         1 <0>         0.1266
     36 H4          1.6056   12.0534   -0.0096 H         1 <0>         0.1214
     37 H5         -0.3070   13.6008    0.0462 H         1 <0>         0.1263
     38 H6          2.5809   10.1498    0.0695 H         1 <0>         0.1517
     39 H7          3.6919   11.5390    0.0076 H         1 <0>         0.1188
     40 H8          8.7516    9.7991   -0.2171 H         1 <0>         0.4291
     41 H9          9.8358   11.0813   -0.2725 H         1 <0>         0.4221
     42 H10         4.2958    5.6970   -0.0738 H         1 <0>         0.3782
     43 H11         3.3143    3.5771    0.0442 H         1 <0>         0.1129
     44 H12         2.1747    1.3589   -0.0477 H         1 <0>         0.1200
     45 H13         0.1291    0.0016   -0.0164 H         1 <0>         0.1172
     46 H14        -2.0795    1.0792    0.0367 H         1 <0>         0.1165
     47 H15        -2.2686    3.5267    0.0778 H         1 <0>         0.1232
     48 O4         -0.9884    5.9546   -0.8837 O.co2     1 <0>        -0.7558
@<TRIPOS>BOND
     1    1    6 ar
     2    1    2 ar
     3    1   33 1
     4    2    3 ar
     5    2   34 1
     6    3    4 ar
     7    3   35 1
     8    4    5 ar
     9    4    7 1
    10    5    6 ar
    11    5   36 1
    12    6   37 1
    13    7    8 1
    14    8    9 1
    15    8   38 1
    16    8   39 1
    17    9   13 1
    18    9   10 2
    19   10   11 1
    20   10   20 1
    21   11   12 2
    22   12   13 1
    23   13   14 1
    24   14   18 2
    25   14   15 1
    26   15   16 2
    27   15   19 1
    28   16   17 1
    29   17   18 1
    30   19   40 1
    31   19   41 1
    32   20   21 2
    33   20   22 am
    34   22   23 1
    35   22   42 1
    36   23   24 2
    37   24   25 1
    38   24   43 1
    39   25   30 ar
    40   25   26 ar
    41   26   27 ar
    42   26   44 1
    43   27   28 ar
    44   27   45 1
    45   28   29 ar
    46   28   46 1
    47   29   30 ar
    48   29   47 1
    49   30   31 1
    50   31   32 2
    51   31   48 1
@<TRIPOS>MOLECULE
ZINC20527421
   46    48     0     0     0
SMALL
USER_CHARGES
2-[[4-amino-5-[(N'E)-N'-[(2-hydroxy-5-nitro-phenyl)methylene]hydrazino]-1,2,4-triazol-3-yl]sulfanyl]-1-(p-tolyl)ethanone
@<TRIPOS>ATOM
      1 C1          2.9146    3.9045  -10.7097 C.3       1 <0>        -0.1243
      2 C2          2.8014    3.4603   -9.2742 C.ar      1 <0>        -0.0509
      3 C3          3.9259    3.0171   -8.6000 C.ar      1 <0>        -0.1364
      4 C4          3.8305    2.6090   -7.2863 C.ar      1 <0>        -0.0531
      5 C5          2.5933    2.6441   -6.6352 C.ar      1 <0>        -0.1711
      6 C6          1.4606    3.0882   -7.3250 C.ar      1 <0>        -0.0632
      7 C7          1.5734    3.4980   -8.6367 C.ar      1 <0>        -0.1335
      8 C8          2.4827    2.2104   -5.2333 C.2       1 <0>         0.4193
      9 O1          3.4658    1.8212   -4.6397 O.2       1 <0>        -0.4401
     10 C9          1.1476    2.2498   -4.5354 C.3       1 <0>        -0.1668
     11 S1          1.3379    1.6590   -2.8351 S.3       1 <0>         0.0636
     12 C10        -0.2778    1.8034   -2.2877 C.2       1 <0>         0.0575
     13 N1         -1.3281    2.2438   -3.0081 N.2       1 <0>        -0.2620
     14 N2         -2.3887    2.2256   -2.2812 N.2       1 <0>        -0.2517
     15 C11        -2.0853    1.7679   -1.0526 C.2       1 <0>         0.4353
     16 N3         -0.7405    1.4903   -1.0408 N.pl3     1 <0>        -0.2330
     17 N4         -0.0116    1.0048    0.0076 N.3       1 <0>        -0.7680
     18 N5         -2.9359    1.6120   -0.0325 N.pl3     1 <0>        -0.4941
     19 N6         -4.1816    1.9131   -0.1796 N.2       1 <0>        -0.1723
     20 C12        -5.0197    1.7595    0.8255 C.2       1 <0>         0.0799
     21 C13        -6.3879    2.0902    0.6640 C.ar      1 <0>        -0.1883
     22 C14        -7.2871    1.9286    1.7324 C.ar      1 <0>         0.0198
     23 C15        -8.6031    2.2495    1.5697 C.ar      1 <0>        -0.1229
     24 C16        -9.0659    2.7366    0.3537 C.ar      1 <0>        -0.0177
     25 C17        -8.2018    2.9041   -0.7108 C.ar      1 <0>        -0.2300
     26 C18        -6.8587    2.5905   -0.5700 C.ar      1 <0>         0.3172
     27 O2         -6.0055    2.7577   -1.6094 O.3       1 <0>        -0.5864
     28 N7         -9.5453    2.0778    2.6981 N.pl3     1 <0>         0.0349
     29 O3         -9.1123    1.6169    3.8533 O.2       1 <0>        -0.2684
     30 O4        -10.8168    2.3860    2.5470 O.3       1 <0>        -0.2645
     31 H1          3.9581    3.8047  -11.0432 H         1 <0>         0.0681
     32 H2          2.6016    4.9557  -10.7940 H         1 <0>         0.0756
     33 H3          2.2668    3.2773  -11.3397 H         1 <0>         0.0756
     34 H4          4.8806    2.9906   -9.1042 H         1 <0>         0.1290
     35 H5          4.7089    2.2635   -6.7615 H         1 <0>         0.1347
     36 H6          0.5009    3.1136   -6.8304 H         1 <0>         0.1387
     37 H7          0.7004    3.8450   -9.1695 H         1 <0>         0.1316
     38 H8          0.7699    3.2829   -4.5245 H         1 <0>         0.1350
     39 H9          0.4351    1.6046   -5.0702 H         1 <0>         0.1350
     40 H10        -0.5041    0.7908    0.9676 H         1 <0>         0.4397
     41 H11         1.0679    0.8278   -0.1082 H         1 <0>         0.4477
     42 H12        -2.5733    1.2270    0.9320 H         1 <0>         0.3753
     43 H13        -4.6571    1.3745    1.7900 H         1 <0>         0.1016
     44 H14        -6.9365    1.5503    2.6812 H         1 <0>         0.1303
     45 H15       -10.1104    2.9868    0.2398 H         1 <0>         0.1277
     46 H16        -8.5718    3.2835   -1.6519 H         1 <0>         0.1256
@<TRIPOS>BOND
     1    1    2 1
     2    1   31 1
     3    1   32 1
     4    1   33 1
     5    2    7 ar
     6    2    3 ar
     7    3    4 ar
     8    3   34 1
     9    4    5 ar
    10    4   35 1
    11    5    6 ar
    12    5    8 1
    13    6    7 ar
    14    6   36 1
    15    7   37 1
    16    8    9 2
    17    8   10 1
    18   10   11 1
    19   10   38 1
    20   10   39 1
    21   11   12 1
    22   12   16 1
    23   12   13 2
    24   13   14 1
    25   14   15 2
    26   15   16 1
    27   15   18 1
    28   16   17 1
    29   17   40 1
    30   17   41 1
    31   18   19 1
    32   18   42 1
    33   19   20 2
    34   20   21 1
    35   20   43 1
    36   21   26 ar
    37   21   22 ar
    38   22   23 ar
    39   22   44 1
    40   23   24 ar
    41   23   28 1
    42   24   25 ar
    43   24   45 1
    44   25   26 ar
    45   25   46 1
    46   26   27 1
    47   28   29 2
    48   28   30 1
@<TRIPOS>MOLECULE
ZINC13135794
   59    61     0     0     0
SMALL
USER_CHARGES

@<TRIPOS>ATOM
      1 C1         -0.0187    1.5258    0.0104 C.3       1 <0>        -0.1530
      2 C2          0.0021   -0.0041    0.0020 C.3       1 <0>        -0.1201
      3 C3          0.7182   -0.4975   -1.2568 C.3       1 <0>        -0.1393
      4 C4          0.7390   -2.0273   -1.2652 C.3       1 <0>         0.1048
      5 N1          1.4247   -2.4998   -2.4705 N.pl3     1 <0>        -0.4701
      6 C5          0.8391   -2.7697   -3.6967 C.ar      1 <0>         0.1027
      7 C6         -0.4594   -2.7001   -4.1778 C.ar      1 <0>        -0.1207
      8 C7         -0.7266   -3.0469   -5.4863 C.ar      1 <0>        -0.0210
      9 C8          0.2957   -3.4656   -6.3249 C.ar      1 <0>        -0.6821
     10 C9          1.5909   -3.5412   -5.8639 C.ar      1 <0>         0.0529
     11 C10         1.8783   -3.1926   -4.5417 C.ar      1 <0>         0.0365
     12 N2          3.0244   -3.1631   -3.8125 N.2       1 <0>        -0.4873
     13 C11         2.7619   -2.7507   -2.5965 C.2       1 <0>         0.2559
     14 S1          3.9543   -2.5541   -1.3143 S.3       1 <0>         0.0777
     15 C12         5.5197   -3.0380   -2.0928 C.3       1 <0>        -0.1446
     16 C13         6.6384   -2.9142   -1.0908 C.2       1 <0>         0.5326
     17 O1          6.4029   -2.5367    0.0375 O.2       1 <0>        -0.5312
     18 N3          7.9006   -3.2230   -1.4484 N.am      1 <0>        -0.7108
     19 C14         8.9882   -3.1026   -0.4742 C.3       1 <0>         0.1751
     20 C15        10.2887   -3.5046   -1.1210 C.ar      1 <0>        -0.1800
     21 C16        10.6998   -4.8276   -1.0789 C.ar      1 <0>        -0.0651
     22 C17        11.8889   -5.2092   -1.6669 C.ar      1 <0>        -0.2345
     23 C18        12.6826   -4.2678   -2.3057 C.ar      1 <0>         0.1687
     24 C19        12.2703   -2.9275   -2.3513 C.ar      1 <0>        -0.1694
     25 C20        11.0600   -2.5567   -1.7558 C.ar      1 <0>        -0.0254
     26 C21        13.1031   -1.9191   -3.0259 C.2       1 <0>         0.5216
     27 O2         12.7399   -0.7515   -3.0633 O.co2     1 <0>        -0.6937
     28 O3         14.1587   -2.2484   -3.5493 O.co2     1 <0>        -0.6679
     29 O4         13.8515   -4.6411   -2.8830 O.3       1 <0>        -0.2659
     30 C22        14.2059   -6.0227   -2.7960 C.3       1 <0>         0.0208
     31 S2         -0.0659   -3.9047   -7.9925 S.o2      1 <0>         2.7069
     32 O5          0.9685   -4.7830   -8.4146 O.2       1 <0>        -0.9617
     33 O6         -1.4382   -4.2716   -8.0275 O.2       1 <0>        -0.9637
     34 N4          0.0798   -2.5296   -8.9036 N.pl3     1 <0>        -1.2501
     35 H1          1.0039    1.9031    0.0027 H         1 <0>         0.0579
     36 H2         -0.5459    1.8868   -0.8726 H         1 <0>         0.0539
     37 H3         -0.5289    1.8773    0.9072 H         1 <0>         0.0579
     38 H4          0.5293   -0.3651    0.8851 H         1 <0>         0.0692
     39 H5         -1.0205   -0.3814    0.0098 H         1 <0>         0.0646
     40 H6          0.1910   -0.1364   -2.1398 H         1 <0>         0.0704
     41 H7          1.7408   -0.1202   -1.2645 H         1 <0>         0.0778
     42 H8          1.2661   -2.3884   -0.3821 H         1 <0>         0.1017
     43 H9         -0.2836   -2.4046   -1.2575 H         1 <0>         0.0968
     44 H10        -1.2600   -2.3755   -3.5297 H         1 <0>         0.1333
     45 H11        -1.7385   -2.9922   -5.8598 H         1 <0>         0.1500
     46 H12         2.3821   -3.8687   -6.5220 H         1 <0>         0.1523
     47 H13         5.4512   -4.0706   -2.4352 H         1 <0>         0.1273
     48 H14         5.7195   -2.3858   -2.9430 H         1 <0>         0.1289
     49 H15         8.0890   -3.5249   -2.3507 H         1 <0>         0.4069
     50 H16         9.0567   -2.0700   -0.1318 H         1 <0>         0.0779
     51 H17         8.7884   -3.7548    0.3759 H         1 <0>         0.0743
     52 H18        10.0859   -5.5646   -0.5825 H         1 <0>         0.1166
     53 H19        12.2020   -6.2421   -1.6291 H         1 <0>         0.1226
     54 H20        10.7332   -1.5279   -1.7898 H         1 <0>         0.1337
     55 H21        14.2917   -6.3105   -1.7481 H         1 <0>         0.0471
     56 H22        13.4360   -6.6263   -3.2766 H         1 <0>         0.0471
     57 H23        15.1603   -6.1852   -3.2967 H         1 <0>         0.0950
     58 H24         0.3257   -1.6917   -8.4811 H         1 <0>         0.4175
     59 H25        -0.0809   -2.5619   -9.8596 H         1 <0>         0.4207
@<TRIPOS>BOND
     1    1    2 1
     2    1   35 1
     3    1   36 1
     4    1   37 1
     5    2    3 1
     6    2   38 1
     7    2   39 1
     8    3    4 1
     9    3   40 1
    10    3   41 1
    11    4    5 1
    12    4   42 1
    13    4   43 1
    14    5   13 1
    15    5    6 1
    16    6   11 ar
    17    6    7 ar
    18    7    8 ar
    19    7   44 1
    20    8    9 ar
    21    8   45 1
    22    9   10 ar
    23    9   31 1
    24   10   11 ar
    25   10   46 1
    26   11   12 1
    27   12   13 2
    28   13   14 1
    29   14   15 1
    30   15   16 1
    31   15   47 1
    32   15   48 1
    33   16   17 2
    34   16   18 am
    35   18   19 1
    36   18   49 1
    37   19   20 1
    38   19   50 1
    39   19   51 1
    40   20   25 ar
    41   20   21 ar
    42   21   22 ar
    43   21   52 1
    44   22   23 ar
    45   22   53 1
    46   23   24 ar
    47   23   29 1
    48   24   25 ar
    49   24   26 1
    50   25   54 1
    51   26   27 2
    52   26   28 1
    53   29   30 1
    54   30   55 1
    55   30   56 1
    56   30   57 1
    57   31   32 2
    58   31   33 2
    59   31   34 1
    60   34   58 1
    61   34   59 1
@<TRIPOS>MOLECULE
ZINC12524359
   55    57     0     0     0
SMALL
USER_CHARGES

@<TRIPOS>ATOM
      1 C1          0.2887    0.7184   -2.9828 C.ar      1 <0>        -0.0824
      2 C2          1.3808    0.6584   -3.8301 C.ar      1 <0>        -0.1266
      3 C3          2.5163   -0.0263   -3.4494 C.ar      1 <0>        -0.0586
      4 C4          2.5618   -0.6593   -2.2061 C.ar      1 <0>        -0.1281
      5 C5          1.4564   -0.5948   -1.3560 C.ar      1 <0>        -0.0929
      6 C6          0.3272    0.0932   -1.7491 C.ar      1 <0>        -0.1185
      7 C7          3.7749   -1.3951   -1.7917 C.2       1 <0>         0.5576
      8 O1          4.7360   -1.4500   -2.5343 O.2       1 <0>        -0.4717
      9 N1          3.8157   -2.0053   -0.5907 N.am      1 <0>        -0.6757
     10 C8          4.9196   -2.7858   -0.2411 C.2       1 <0>         0.1887
     11 C9          4.7475   -4.0776    0.1183 C.2       1 <0>        -0.1633
     12 C10         3.4233   -4.7064   -0.0086 C.ar      1 <0>         0.0310
     13 C11         2.4526   -4.1391   -0.8403 C.ar      1 <0>        -0.1428
     14 C12         1.2142   -4.7346   -0.9542 C.ar      1 <0>        -0.0460
     15 C13         0.9306   -5.8907   -0.2481 C.ar      1 <0>        -0.0702
     16 C14         1.8858   -6.4580    0.5774 C.ar      1 <0>        -0.0505
     17 C15         3.1308   -5.8777    0.6975 C.ar      1 <0>        -0.1186
     18 N2         -0.4012   -6.5234   -0.3761 N.pl3     1 <0>         0.0405
     19 O2         -1.2381   -6.0304   -1.0960 O.2       1 <0>        -0.1685
     20 O3         -0.6523   -7.5334    0.2393 O.3       1 <0>        -0.1726
     21 C16         6.2723   -2.2012   -0.2640 C.2       1 <0>         0.4946
     22 O4          7.2365   -2.8838    0.0370 O.2       1 <0>        -0.5517
     23 N3          6.4426   -0.9178   -0.6160 N.2       1 <0>        -0.6900
     24 C17         7.6573   -0.3928   -0.6366 C.2       1 <0>         0.5783
     25 N4          8.7367   -1.1570   -0.2997 N.2       1 <0>        -0.8175
     26 N5          7.8307    0.9138   -0.9950 N.pl3     1 <0>        -0.6857
     27 C18         6.7187    1.7199   -1.2591 C.ar      1 <0>         0.2682
     28 C19         5.5342    1.5219   -0.5615 C.ar      1 <0>        -0.1307
     29 C20         4.4379    2.3197   -0.8247 C.ar      1 <0>        -0.0041
     30 C21         4.5187    3.3144   -1.7819 C.ar      1 <0>        -0.7175
     31 C22         5.6965    3.5139   -2.4786 C.ar      1 <0>         0.0020
     32 C23         6.7984    2.7239   -2.2155 C.ar      1 <0>        -0.2008
     33 S1          3.1176    4.3296   -2.1151 S.o2      1 <0>         2.6953
     34 O5          3.2816    4.8274   -3.4359 O.2       1 <0>        -0.9775
     35 O6          1.9737    3.5862   -1.7177 O.2       1 <0>        -0.9637
     36 N6          3.2080    5.6366   -1.1021 N.pl3     1 <0>        -1.2555
     37 H1         -0.5962    1.2596   -3.2838 H         1 <0>         0.1229
     38 H2          1.3441    1.1483   -4.7919 H         1 <0>         0.1255
     39 H3          3.3680   -0.0727   -4.1119 H         1 <0>         0.1324
     40 H4          1.4851   -1.0827   -0.3929 H         1 <0>         0.1198
     41 H5         -0.5286    0.1441   -1.0923 H         1 <0>         0.1249
     42 H6          3.0782   -1.9022    0.0310 H         1 <0>         0.4019
     43 H7          5.5820   -4.6481    0.4985 H         1 <0>         0.1535
     44 H8          2.6722   -3.2368   -1.3917 H         1 <0>         0.1607
     45 H9          0.4633   -4.2975   -1.5958 H         1 <0>         0.1501
     46 H10         1.6568   -7.3600    1.1254 H         1 <0>         0.1500
     47 H11         3.8766   -6.3240    1.3386 H         1 <0>         0.1489
     48 H12         9.6175   -0.7545   -0.2440 H         1 <0>         0.2719
     49 H13         8.7250    1.2825   -1.0664 H         1 <0>         0.3980
     50 H14         5.4702    0.7447    0.1857 H         1 <0>         0.1529
     51 H15         3.5165    2.1662   -0.2827 H         1 <0>         0.1292
     52 H16         5.7561    4.2912   -3.2260 H         1 <0>         0.1311
     53 H17         7.7194    2.8834   -2.7565 H         1 <0>         0.1223
     54 H18         3.9479    5.7179   -0.4802 H         1 <0>         0.4153
     55 H19         2.5210    6.3208   -1.1308 H         1 <0>         0.4146
@<TRIPOS>BOND
     1    1    6 ar
     2    1    2 ar
     3    1   37 1
     4    2    3 ar
     5    2   38 1
     6    3    4 ar
     7    3   39 1
     8    4    5 ar
     9    4    7 1
    10    5    6 ar
    11    5   40 1
    12    6   41 1
    13    7    8 2
    14    7    9 am
    15    9   10 1
    16    9   42 1
    17   10   11 2
    18   10   21 1
    19   11   12 1
    20   11   43 1
    21   12   17 ar
    22   12   13 ar
    23   13   14 ar
    24   13   44 1
    25   14   15 ar
    26   14   45 1
    27   15   16 ar
    28   15   18 1
    29   16   17 ar
    30   16   46 1
    31   17   47 1
    32   18   19 2
    33   18   20 1
    34   21   22 2
    35   21   23 1
    36   23   24 2
    37   24   25 1
    38   24   26 1
    39   25   48 1
    40   26   27 1
    41   26   49 1
    42   27   32 ar
    43   27   28 ar
    44   28   29 ar
    45   28   50 1
    46   29   30 ar
    47   29   51 1
    48   30   31 ar
    49   30   33 1
    50   31   32 ar
    51   31   52 1
    52   32   53 1
    53   33   34 2
    54   33   35 2
    55   33   36 1
    56   36   54 1
    57   36   55 1
@<TRIPOS>MOLECULE
ZINC40376081
   49    51     0     0     0
SMALL
USER_CHARGES

@<TRIPOS>ATOM
      1 C1          1.9388   -2.1841    6.8863 C.3       1 <0>        -0.1192
      2 C2          0.9696   -1.7864    5.8030 C.ar      1 <0>        -0.0499
      3 C3          0.0958   -0.7346    6.0100 C.ar      1 <0>        -0.1499
      4 C4         -0.7950   -0.3665    5.0187 C.ar      1 <0>        -0.0890
      5 C5         -0.8148   -1.0487    3.8178 C.ar      1 <0>        -0.1619
      6 C6          0.0616   -2.1050    3.6066 C.ar      1 <0>         0.1697
      7 C7          0.9589   -2.4689    4.6026 C.ar      1 <0>        -0.1666
      8 N1          0.0441   -2.7979    2.3917 N.pl3     1 <0>        -0.7144
      9 C8          0.1735   -4.1679    2.3791 C.2       1 <0>         0.6090
     10 N2          0.2745   -4.8019    1.2463 N.2       1 <0>        -0.7006
     11 N3          0.1962   -4.8703    3.5679 N.pl3     1 <0>        -0.6171
     12 C9          0.3247   -6.2318    3.5553 C.2       1 <0>         0.5425
     13 N4          0.3506   -6.9999    4.6782 N.2       1 <0>        -0.6780
     14 C10         0.5007   -8.3911    4.2132 C.3       1 <0>         0.0029
     15 H1          1.4275   -8.8246    4.5890 H         1 <0>         0.0783
     16 C11         0.5495   -8.2483    2.7046 C.2       1 <0>         0.4713
     17 O1          0.6668   -9.1411    1.8884 O.2       1 <0>        -0.5857
     18 N5          0.4316   -6.9462    2.4566 N.2       1 <0>        -0.6749
     19 C12        -0.7010   -9.2362    4.6408 C.3       1 <0>        -0.0953
     20 C13        -0.7159   -9.3647    6.1422 C.2       1 <0>         0.5191
     21 O2          0.1493   -8.8329    6.8051 O.2       1 <0>        -0.5116
     22 N6         -1.6909  -10.0708    6.7485 N.am      1 <0>        -0.7428
     23 C14        -1.7054  -10.1958    8.2081 C.3       1 <0>         0.1624
     24 C15        -2.8890  -11.0281    8.6292 C.ar      1 <0>        -0.1006
     25 C16        -4.1018  -10.4204    8.8950 C.ar      1 <0>        -0.1016
     26 C17        -5.1875  -11.1838    9.2813 C.ar      1 <0>        -0.1230
     27 C18        -5.0605  -12.5551    9.4014 C.ar      1 <0>        -0.1181
     28 C19        -3.8479  -13.1629    9.1347 C.ar      1 <0>        -0.1233
     29 C20        -2.7634  -12.3999    8.7442 C.ar      1 <0>        -0.1021
     30 H2          2.8660   -1.6235    6.7680 H         1 <0>         0.0703
     31 H3          1.5037   -1.9652    7.8614 H         1 <0>         0.0672
     32 H4          2.1477   -3.2514    6.8130 H         1 <0>         0.0735
     33 H5          0.1090   -0.1998    6.9482 H         1 <0>         0.1202
     34 H6         -1.4763    0.4551    5.1836 H         1 <0>         0.1220
     35 H7         -1.5113   -0.7612    3.0441 H         1 <0>         0.1220
     36 H8          1.6445   -3.2873    4.4399 H         1 <0>         0.1328
     37 H9         -0.0592   -2.3128    1.5581 H         1 <0>         0.4121
     38 H10         0.3369   -4.3043    0.4160 H         1 <0>         0.3222
     39 H11         0.1209   -4.3980    4.4118 H         1 <0>         0.4149
     40 H12        -1.6206   -8.7546    4.3082 H         1 <0>         0.0795
     41 H13        -0.6267  -10.2267    4.1920 H         1 <0>         0.0829
     42 H14        -2.3829  -10.4962    6.2184 H         1 <0>         0.3960
     43 H15        -0.7858  -10.6773    8.5406 H         1 <0>         0.0704
     44 H16        -1.7797   -9.2052    8.6568 H         1 <0>         0.0714
     45 H17        -4.2010   -9.3490    8.8012 H         1 <0>         0.1243
     46 H18        -6.1348  -10.7089    9.4897 H         1 <0>         0.1220
     47 H19        -5.9086  -13.1515    9.7039 H         1 <0>         0.1204
     48 H20        -3.7487  -14.2342    9.2288 H         1 <0>         0.1220
     49 H21        -1.8170  -12.8752    8.5322 H         1 <0>         0.1241
@<TRIPOS>BOND
     1    1    2 1
     2    1   30 1
     3    1   31 1
     4    1   32 1
     5    2    7 ar
     6    2    3 ar
     7    3    4 ar
     8    3   33 1
     9    4    5 ar
    10    4   34 1
    11    5    6 ar
    12    5   35 1
    13    6    7 ar
    14    6    8 1
    15    7   36 1
    16    8    9 1
    17    8   37 1
    18    9   10 2
    19    9   11 1
    20   10   38 1
    21   11   12 1
    22   11   39 1
    23   12   18 2
    24   12   13 1
    25   13   14 1
    26   14   15 1
    27   14   16 1
    28   14   19 1
    29   16   17 2
    30   16   18 1
    31   19   20 1
    32   19   40 1
    33   19   41 1
    34   20   21 2
    35   20   22 am
    36   22   23 1
    37   22   42 1
    38   23   24 1
    39   23   43 1
    40   23   44 1
    41   24   29 ar
    42   24   25 ar
    43   25   26 ar
    44   25   45 1
    45   26   27 ar
    46   26   46 1
    47   27   28 ar
    48   27   47 1
    49   28   29 ar
    50   28   48 1
    51   29   49 1
@<TRIPOS>MOLECULE
ZINC11331740
   53    55     0     0     0
SMALL
USER_CHARGES
4-[[4-[3-(3-hydroxy-2-methoxy-phenyl)prop-2-enoyl]phenyl]sulfonylaminomethyl]benzoic acid
@<TRIPOS>ATOM
      1 C1          2.9304    1.2259   -1.2934 C.3       1 <0>         0.0337
      2 O1          2.3746    1.5315   -0.0129 O.3       1 <0>        -0.3248
      3 C2          1.1855    2.1864    0.0025 C.ar      1 <0>         0.0982
      4 C3         -0.0178    1.4641    0.0101 C.ar      1 <0>        -0.0908
      5 C4         -1.2378    2.1520    0.0196 C.ar      1 <0>        -0.0897
      6 C5         -1.2510    3.5291    0.0335 C.ar      1 <0>        -0.1094
      7 C6         -0.0625    4.2411    0.0260 C.ar      1 <0>        -0.1153
      8 C7          1.1529    3.5763    0.0103 C.ar      1 <0>         0.0848
      9 O2          2.3146    4.2835    0.0030 O.3       1 <0>        -0.4844
     10 C8          0.0021   -0.0041    0.0020 C.2       1 <0>         0.0083
     11 C9         -1.1602   -0.6964    0.0094 C.2       1 <0>        -0.2427
     12 C10        -1.1410   -2.1136    0.0016 C.2       1 <0>         0.4224
     13 O3         -0.0784   -2.7080   -0.0117 O.2       1 <0>        -0.4503
     14 C11        -2.4119   -2.8706    0.0097 C.ar      1 <0>        -0.1072
     15 C12        -3.6318   -2.1923    0.0307 C.ar      1 <0>        -0.0974
     16 C13        -4.8133   -2.9042    0.0328 C.ar      1 <0>        -0.0323
     17 C14        -4.7910   -4.2877    0.0247 C.ar      1 <0>        -0.6516
     18 C15        -3.5852   -4.9663    0.0096 C.ar      1 <0>        -0.0271
     19 C16        -2.3965   -4.2665    0.0020 C.ar      1 <0>        -0.0850
     20 S1         -6.3048   -5.1894    0.0342 S.o2      1 <0>         2.6916
     21 O4         -7.2962   -4.3244   -0.5026 O.2       1 <0>        -0.9520
     22 O5         -6.0218   -6.4642   -0.5262 O.2       1 <0>        -0.9558
     23 N1         -6.7104   -5.4485    1.6188 N.pl3     1 <0>        -1.1078
     24 C17        -7.0366   -4.3139    2.4863 C.3       1 <0>         0.1635
     25 C18        -7.7142   -4.8153    3.7355 C.ar      1 <0>        -0.1172
     26 C19        -9.0922   -4.9351    3.7708 C.ar      1 <0>        -0.1171
     27 C20        -9.7185   -5.3979    4.9094 C.ar      1 <0>        -0.0803
     28 C21        -8.9594   -5.7358    6.0315 C.ar      1 <0>        -0.1014
     29 C22        -7.5696   -5.6075    5.9908 C.ar      1 <0>        -0.0898
     30 C23        -6.9558   -5.1484    4.8439 C.ar      1 <0>        -0.1192
     31 C24        -9.6236   -6.2273    7.2561 C.2       1 <0>         0.4861
     32 O6         -8.9605   -6.5209    8.2306 O.co2     1 <0>        -0.6298
     33 H1          3.0978    2.1499   -1.8468 H         1 <0>         0.0457
     34 H2          3.8783    0.7038   -1.1628 H         1 <0>         0.1008
     35 H3          2.2391    0.5907   -1.8473 H         1 <0>         0.0498
     36 H4         -2.1677    1.6027    0.0206 H         1 <0>         0.1388
     37 H5         -2.1931    4.0569    0.0457 H         1 <0>         0.1384
     38 H6         -0.0836    5.3209    0.0320 H         1 <0>         0.1384
     39 H7          2.6421    4.4928   -0.8824 H         1 <0>         0.3880
     40 H8          0.9446   -0.5313   -0.0098 H         1 <0>         0.1412
     41 H9         -2.1027   -0.1691    0.0212 H         1 <0>         0.1381
     42 H10        -3.6505   -1.1125    0.0416 H         1 <0>         0.1413
     43 H11        -5.7579   -2.3806    0.0446 H         1 <0>         0.1492
     44 H12        -3.5747   -6.0463    0.0033 H         1 <0>         0.1482
     45 H13        -1.4560   -4.7973   -0.0101 H         1 <0>         0.1441
     46 H14        -6.7320   -6.3514    1.9725 H         1 <0>         0.4240
     47 H15        -6.1210   -3.7876    2.7559 H         1 <0>         0.0709
     48 H16        -7.7049   -3.6334    1.9586 H         1 <0>         0.0869
     49 H17        -9.6785   -4.6695    2.9035 H         1 <0>         0.1200
     50 H18       -10.7938   -5.4952    4.9341 H         1 <0>         0.1327
     51 H19        -6.9765   -5.8675    6.8551 H         1 <0>         0.1281
     52 H20        -5.8809   -5.0490    4.8109 H         1 <0>         0.1173
     53 O7        -10.9646   -6.3499    7.2921 O.co2     1 <0>        -0.7520
@<TRIPOS>BOND
     1    1    2 1
     2    1   33 1
     3    1   34 1
     4    1   35 1
     5    2    3 1
     6    3    8 ar
     7    3    4 ar
     8    4    5 ar
     9    4   10 1
    10    5    6 ar
    11    5   36 1
    12    6    7 ar
    13    6   37 1
    14    7    8 ar
    15    7   38 1
    16    8    9 1
    17    9   39 1
    18   10   11 2
    19   10   40 1
    20   11   12 1
    21   11   41 1
    22   12   13 2
    23   12   14 1
    24   14   19 ar
    25   14   15 ar
    26   15   16 ar
    27   15   42 1
    28   16   17 ar
    29   16   43 1
    30   17   18 ar
    31   17   20 1
    32   18   19 ar
    33   18   44 1
    34   19   45 1
    35   20   21 2
    36   20   22 2
    37   20   23 1
    38   23   24 1
    39   23   46 1
    40   24   25 1
    41   24   47 1
    42   24   48 1
    43   25   30 ar
    44   25   26 ar
    45   26   27 ar
    46   26   49 1
    47   27   28 ar
    48   27   50 1
    49   28   29 ar
    50   28   31 1
    51   29   30 ar
    52   29   51 1
    53   30   52 1
    54   31   32 2
    55   31   53 1
@<TRIPOS>MOLECULE
ZINC20663873
   56    58     0     0     0
SMALL
USER_CHARGES
4-(3-morpholinopropylamino)-3-[[3-(trifluoromethyl)phenyl]sulfamoyl]benzoic acid
@<TRIPOS>ATOM
      1 C1          4.2407    8.4252   -2.6377 C.ar      1 <0>        -0.0910
      2 C2          5.1734    7.6942   -3.3510 C.ar      1 <0>        -0.0829
      3 C3          5.2104    6.3168   -3.2375 C.ar      1 <0>        -0.1690
      4 C4          4.3228    5.6669   -2.4022 C.ar      1 <0>        -0.0828
      5 C5          3.3849    6.3979   -1.6845 C.ar      1 <0>         0.1578
      6 C6          3.3468    7.7815   -1.8052 C.ar      1 <0>        -0.1171
      7 N1          2.4818    5.7435   -0.8437 N.pl3     1 <0>        -1.0767
      8 S1          0.8786    6.1577   -0.8679 S.o2      1 <0>         2.6916
      9 O1          0.2187    5.2798    0.0339 O.2       1 <0>        -0.9568
     10 O2          0.8222    7.5712   -0.7335 O.2       1 <0>        -0.9501
     11 C7          0.2672    5.7800   -2.4766 C.ar      1 <0>        -0.7578
     12 C8         -0.1629    6.7916   -3.3050 C.ar      1 <0>         0.0513
     13 C9         -0.6469    6.4864   -4.5812 C.ar      1 <0>        -0.1816
     14 C10        -0.6914    5.1556   -5.0091 C.ar      1 <0>         0.0258
     15 C11        -0.2631    4.1567   -4.1821 C.ar      1 <0>        -0.2296
     16 C12         0.2241    4.4585   -2.9131 C.ar      1 <0>         0.3115
     17 N2          0.6635    3.4377   -2.0781 N.pl3     1 <0>        -0.7519
     18 C13         0.4953    2.0390   -2.4800 C.3       1 <0>         0.1260
     19 C14         0.9455    1.1231   -1.3401 C.3       1 <0>        -0.1299
     20 C15         0.8853   -0.3341   -1.8026 C.3       1 <0>         0.0578
     21 N3          1.3176   -1.2134   -0.7082 N.3       1 <0>        -0.5359
     22 C16         2.7404   -1.0099   -0.3994 C.3       1 <0>         0.0120
     23 C17         3.1330   -1.9000    0.7827 C.3       1 <0>         0.0613
     24 O3          2.8374   -3.2629    0.4655 O.3       1 <0>        -0.3865
     25 C18         1.4600   -3.4972    0.1602 C.3       1 <0>         0.0618
     26 C19         1.0505   -2.6232   -1.0283 C.3       1 <0>         0.0161
     27 C20        -1.1085    7.5648   -5.4734 C.2       1 <0>         0.4942
     28 O4         -1.0689    8.7207   -5.1004 O.co2     1 <0>        -0.6314
     29 O5         -1.5746    7.2691   -6.7028 O.co2     1 <0>        -0.7581
     30 C21         6.2240    5.5239   -4.0218 C.3       1 <0>         0.5100
     31 F1          7.0084    6.3953   -4.7850 F         1 <0>        -0.1761
     32 F2          7.0428    4.8113   -3.1392 F         1 <0>        -0.1790
     33 F3          5.5619    4.6291   -4.8691 F         1 <0>        -0.1743
     34 H1          4.2114    9.5006   -2.7323 H         1 <0>         0.1445
     35 H2          5.8715    8.2002   -4.0014 H         1 <0>         0.1409
     36 H3          4.3551    4.5913   -2.3106 H         1 <0>         0.1360
     37 H4          2.6189    8.3529   -1.2483 H         1 <0>         0.1665
     38 H5          2.8354    4.9530   -0.1654 H         1 <0>         0.4472
     39 H6         -0.1265    7.8178   -2.9707 H         1 <0>         0.1459
     40 H7         -1.0651    4.9177   -5.9941 H         1 <0>         0.1378
     41 H8         -0.2985    3.1299   -4.5150 H         1 <0>         0.1240
     42 H9          1.1375    3.6802   -1.1155 H         1 <0>         0.4065
     43 H10        -0.5638    1.8477   -2.7076 H         1 <0>         0.0687
     44 H11         1.1044    1.8385   -3.3738 H         1 <0>         0.0621
     45 H12         1.9773    1.3745   -1.0535 H         1 <0>         0.0690
     46 H13         0.2807    1.2609   -0.4746 H         1 <0>         0.0843
     47 H14        -0.1465   -0.5855   -2.0892 H         1 <0>         0.0820
     48 H15         1.5501   -0.4719   -2.6681 H         1 <0>         0.0399
     49 H16         3.3477   -1.2744   -1.2776 H         1 <0>         0.0437
     50 H17         2.9119    0.0451   -0.1393 H         1 <0>         0.0904
     51 H18         4.2097   -1.7928    0.9807 H         1 <0>         0.0990
     52 H19         2.5643   -1.5974    1.6743 H         1 <0>         0.0611
     53 H20         1.3163   -4.5575   -0.0951 H         1 <0>         0.0989
     54 H21         0.8424   -3.2436    1.0344 H         1 <0>         0.0609
     55 H22        -0.0224   -2.7562   -1.2313 H         1 <0>         0.0884
     56 H23         1.6305   -2.9138   -1.9167 H         1 <0>         0.0436
@<TRIPOS>BOND
     1    1    6 ar
     2    1    2 ar
     3    1   34 1
     4    2    3 ar
     5    2   35 1
     6    3    4 ar
     7    3   30 1
     8    4    5 ar
     9    4   36 1
    10    5    6 ar
    11    5    7 1
    12    6   37 1
    13    7    8 1
    14    7   38 1
    15    8    9 2
    16    8   10 2
    17    8   11 1
    18   11   16 ar
    19   11   12 ar
    20   12   13 ar
    21   12   39 1
    22   13   14 ar
    23   13   27 1
    24   14   15 ar
    25   14   40 1
    26   15   16 ar
    27   15   41 1
    28   16   17 1
    29   17   18 1
    30   17   42 1
    31   18   19 1
    32   18   43 1
    33   18   44 1
    34   19   20 1
    35   19   45 1
    36   19   46 1
    37   20   21 1
    38   20   47 1
    39   20   48 1
    40   21   26 1
    41   21   22 1
    42   22   23 1
    43   22   49 1
    44   22   50 1
    45   23   24 1
    46   23   51 1
    47   23   52 1
    48   24   25 1
    49   25   26 1
    50   25   53 1
    51   25   54 1
    52   26   55 1
    53   26   56 1
    54   27   28 2
    55   27   29 1
    56   30   31 1
    57   30   32 1
    58   30   33 1
@<TRIPOS>MOLECULE
ZINC04647389
   54    56     0     0     0
SMALL
USER_CHARGES

@<TRIPOS>ATOM
      1 C1         -0.0184    1.5105    0.0214 C.3       1 <0>        -0.1521
      2 C2          0.0087   -0.0193    0.0144 C.3       1 <0>        -0.0922
      3 C3         -1.4243   -0.5549    0.0301 C.3       1 <0>        -0.1478
      4 C4          0.7232   -0.5109   -1.2461 C.3       1 <0>        -0.1295
      5 C5          2.1906   -0.0802   -1.2014 C.3       1 <0>         0.1186
      6 N1          2.8747   -0.5509   -2.4084 N.am      1 <0>        -0.7222
      7 C6          4.1840   -0.2863   -2.5874 C.2       1 <0>         0.5883
      8 O1          4.7755    0.4215   -1.7944 O.2       1 <0>        -0.5673
      9 C7          4.8980   -0.8535   -3.7421 C.2       1 <0>        -0.3480
     10 C8          6.2609   -0.6865   -3.8750 C.2       1 <0>         0.2483
     11 N2          6.9439   -1.1885   -4.9122 N.pl3     1 <0>        -0.5919
     12 H1          7.9015   -1.0393   -4.9535 H         1 <0>         0.4255
     13 C9          6.3443   -1.9082   -5.9229 C.ar      1 <0>         0.2093
     14 C10         7.1009   -2.4097   -6.9793 C.ar      1 <0>        -0.1872
     15 C11         6.4898   -3.1279   -7.9832 C.ar      1 <0>         0.0357
     16 C12         5.1217   -3.3602   -7.9572 C.ar      1 <0>        -0.6444
     17 C13         4.3541   -2.8735   -6.9227 C.ar      1 <0>         0.0695
     18 C14         4.9597   -2.1452   -5.8986 C.ar      1 <0>        -0.2075
     19 C15         4.1712   -1.6136   -4.7713 C.2       1 <0>         0.4389
     20 O2          2.9682   -1.7931   -4.6971 O.2       1 <0>        -0.4823
     21 S1          4.3637   -4.2814   -9.2539 S.o2      1 <0>         2.6046
     22 O3          2.9966   -3.8945   -9.2814 O.2       1 <0>        -1.0214
     23 O4          5.2124   -4.1612  -10.3873 O.2       1 <0>        -1.0247
     24 N3          4.3956   -5.8752   -8.8056 N.2       1 <0>        -1.0863
     25 C16         3.8571   -6.8491   -9.6497 C.ar      1 <0>         0.2783
     26 C17         3.2995   -6.4829  -10.8684 C.ar      1 <0>        -0.2373
     27 C18         2.7684   -7.4482  -11.7007 C.ar      1 <0>        -0.0653
     28 C19         2.7907   -8.7783  -11.3222 C.ar      1 <0>        -0.1827
     29 C20         3.3445   -9.1461  -10.1099 C.ar      1 <0>        -0.1422
     30 C21         3.8830   -8.1863   -9.2752 C.ar      1 <0>        -0.1316
     31 C22         3.3657  -10.5965   -9.7012 C.3       1 <0>         0.5087
     32 F1          2.7732  -11.3721  -10.7035 F         1 <0>        -0.1846
     33 F2          4.6894  -11.0088   -9.5137 F         1 <0>        -0.1827
     34 F3          2.6543  -10.7550   -8.5071 F         1 <0>        -0.1822
     35 H2          1.0025    1.8921    0.0102 H         1 <0>         0.0582
     36 H3         -0.5498    1.8685   -0.8604 H         1 <0>         0.0552
     37 H4         -0.5274    1.8607    0.9194 H         1 <0>         0.0536
     38 H5          0.5401   -0.3773    0.8962 H         1 <0>         0.0719
     39 H6         -1.9557   -0.1969   -0.8517 H         1 <0>         0.0555
     40 H7         -1.4050   -1.6447    0.0250 H         1 <0>         0.0556
     41 H8         -1.9333   -0.2047    0.9281 H         1 <0>         0.0544
     42 H9          0.6650   -1.5982   -1.2961 H         1 <0>         0.0711
     43 H10         0.2449   -0.0806   -2.1260 H         1 <0>         0.0710
     44 H11         2.2488    1.0071   -1.1515 H         1 <0>         0.0676
     45 H12         2.6689   -0.5104   -0.3215 H         1 <0>         0.0632
     46 H13         2.3853   -1.0529   -3.0787 H         1 <0>         0.4154
     47 H14         6.7950   -0.1322   -3.1176 H         1 <0>         0.1824
     48 H15         8.1662   -2.2351   -7.0115 H         1 <0>         0.1422
     49 H16         7.0816   -3.5142   -8.7999 H         1 <0>         0.1508
     50 H17         3.2895   -3.0546   -6.9043 H         1 <0>         0.1575
     51 H18         3.2810   -5.4444  -11.1643 H         1 <0>         0.1052
     52 H19         2.3347   -7.1643  -12.6482 H         1 <0>         0.1152
     53 H20         2.3743   -9.5313  -11.9749 H         1 <0>         0.1186
     54 H21         4.3198   -8.4748   -8.3305 H         1 <0>         0.1234
@<TRIPOS>BOND
     1    1    2 1
     2    1   35 1
     3    1   36 1
     4    1   37 1
     5    2    3 1
     6    2    4 1
     7    2   38 1
     8    3   39 1
     9    3   40 1
    10    3   41 1
    11    4    5 1
    12    4   42 1
    13    4   43 1
    14    5    6 1
    15    5   44 1
    16    5   45 1
    17    6    7 am
    18    6   46 1
    19    7    8 2
    20    7    9 1
    21    9   19 1
    22    9   10 2
    23   10   11 1
    24   10   47 1
    25   11   12 1
    26   11   13 1
    27   13   18 ar
    28   13   14 ar
    29   14   15 ar
    30   14   48 1
    31   15   16 ar
    32   15   49 1
    33   16   17 ar
    34   16   21 1
    35   17   18 ar
    36   17   50 1
    37   18   19 1
    38   19   20 2
    39   21   22 2
    40   21   23 2
    41   21   24 1
    42   24   25 1
    43   25   30 ar
    44   25   26 ar
    45   26   27 ar
    46   26   51 1
    47   27   28 ar
    48   27   52 1
    49   28   29 ar
    50   28   53 1
    51   29   30 ar
    52   29   31 1
    53   30   54 1
    54   31   32 1
    55   31   33 1
    56   31   34 1
@<TRIPOS>MOLECULE
ZINC40109591
   55    58     0     0     0
SMALL
USER_CHARGES

@<TRIPOS>ATOM
      1 C1          3.3712   -5.7427   -7.9012 C.ar      1 <0>        -0.1141
      2 C2          4.6199   -5.1557   -7.9895 C.ar      1 <0>        -0.1087
      3 C3          5.3371   -4.8802   -6.8408 C.ar      1 <0>        -0.1095
      4 C4          4.8050   -5.1914   -5.6020 C.ar      1 <0>        -0.0313
      5 C5          3.5554   -5.7782   -5.5142 C.ar      1 <0>        -0.0794
      6 C6          2.8392   -6.0539   -6.6640 C.ar      1 <0>        -0.0849
      7 C7          2.9754   -6.1180   -4.1654 C.3       1 <0>         0.0999
      8 O1          1.6861   -6.7100   -4.3367 O.3       1 <0>        -0.3111
      9 C8          1.0224   -7.0772   -3.2116 C.ar      1 <0>         0.1400
     10 C9          1.6010   -6.8653   -1.9650 C.ar      1 <0>        -0.2230
     11 C10         0.9311   -7.2364   -0.8211 C.ar      1 <0>        -0.0336
     12 C11        -0.3331   -7.8266   -0.9139 C.ar      1 <0>        -0.1706
     13 C12        -0.9114   -8.0374   -2.1694 C.ar      1 <0>        -0.0246
     14 C13        -0.2368   -7.6590   -3.3081 C.ar      1 <0>        -0.1648
     15 C14        -1.0548   -8.2265    0.3100 C.2       1 <0>         0.5070
     16 O2         -0.5176   -8.1167    1.3965 O.2       1 <0>        -0.4774
     17 C15        -2.4191   -8.7561    0.2167 C.2       1 <0>        -0.5024
     18 C16        -2.8213  -10.0097    0.5296 C.2       1 <0>         0.2620
     19 C17        -4.2753  -10.1268    0.2914 C.2       1 <0>         0.5100
     20 O3         -4.9339  -11.1305    0.4784 O.2       1 <0>        -0.5394
     21 N1         -4.7618   -8.9576   -0.1629 N.am      1 <0>        -0.6057
     22 C18        -3.6477   -8.0053   -0.2409 C.3       1 <0>         0.2626
     23 H1         -3.5187   -7.6665   -1.2688 H         1 <0>         0.0663
     24 C19        -3.9033   -6.8285    0.6651 C.ar      1 <0>        -0.0391
     25 C20        -4.0857   -7.0277    2.0214 C.ar      1 <0>        -0.0504
     26 C21        -4.3203   -5.9503    2.8552 C.ar      1 <0>        -0.1144
     27 C22        -4.3737   -4.6714    2.3350 C.ar      1 <0>        -0.1485
     28 C23        -4.1912   -4.4690    0.9749 C.ar      1 <0>         0.0889
     29 C24        -3.9497   -5.5514    0.1411 C.ar      1 <0>        -0.1315
     30 O4         -4.2431   -3.2121    0.4608 O.3       1 <0>        -0.5050
     31 C25        -6.1576   -8.6819   -0.5119 C.3       1 <0>         0.1391
     32 C26        -6.9441   -8.3476    0.7572 C.3       1 <0>         0.0562
     33 O5         -6.5221   -7.0778    1.2585 O.3       1 <0>        -0.5480
     34 O6         -2.0198  -10.9989    0.9875 O.3       1 <0>        -0.6557
     35 Cl1         5.7055   -4.8461   -4.1585 Cl        1 <0>        -0.0658
     36 H2          2.8094   -5.9541   -8.7990 H         1 <0>         0.1314
     37 H3          5.0351   -4.9128   -8.9565 H         1 <0>         0.1324
     38 H4          6.3128   -4.4223   -6.9100 H         1 <0>         0.1353
     39 H5          1.8638   -6.5124   -6.5956 H         1 <0>         0.1438
     40 H6          3.6329   -6.8209   -3.6538 H         1 <0>         0.0823
     41 H7          2.8818   -5.2092   -3.5708 H         1 <0>         0.0820
     42 H8          2.5775   -6.4094   -1.8942 H         1 <0>         0.1265
     43 H9          1.3815   -7.0721    0.1467 H         1 <0>         0.1323
     44 H10        -1.8877   -8.4930   -2.2454 H         1 <0>         0.1415
     45 H11        -0.6845   -7.8177   -4.2780 H         1 <0>         0.1312
     46 H12        -4.0450   -8.0266    2.4298 H         1 <0>         0.1117
     47 H13        -4.4624   -6.1084    3.9141 H         1 <0>         0.1143
     48 H14        -4.5578   -3.8301    2.9867 H         1 <0>         0.1139
     49 H15        -3.8025   -5.3960   -0.9175 H         1 <0>         0.1161
     50 H16        -3.3890   -2.7592    0.4420 H         1 <0>         0.3805
     51 H17        -6.2003   -7.8368   -1.1989 H         1 <0>         0.0834
     52 H18        -6.5932   -9.5601   -0.9885 H         1 <0>         0.0872
     53 H19        -8.0087   -8.3114    0.5260 H         1 <0>         0.0467
     54 H20        -6.7618   -9.1144    1.5102 H         1 <0>         0.0476
     55 H21        -6.9798   -6.8011    2.0642 H         1 <0>         0.3666
@<TRIPOS>BOND
     1    1    6 ar
     2    1    2 ar
     3    1   36 1
     4    2    3 ar
     5    2   37 1
     6    3    4 ar
     7    3   38 1
     8    4    5 ar
     9    4   35 1
    10    5    6 ar
    11    5    7 1
    12    6   39 1
    13    7    8 1
    14    7   40 1
    15    7   41 1
    16    8    9 1
    17    9   14 ar
    18    9   10 ar
    19   10   11 ar
    20   10   42 1
    21   11   12 ar
    22   11   43 1
    23   12   13 ar
    24   12   15 1
    25   13   14 ar
    26   13   44 1
    27   14   45 1
    28   15   16 2
    29   15   17 1
    30   17   22 1
    31   17   18 2
    32   18   19 1
    33   18   34 1
    34   19   20 2
    35   19   21 am
    36   21   22 1
    37   21   31 1
    38   22   23 1
    39   22   24 1
    40   24   29 ar
    41   24   25 ar
    42   25   26 ar
    43   25   46 1
    44   26   27 ar
    45   26   47 1
    46   27   28 ar
    47   27   48 1
    48   28   29 ar
    49   28   30 1
    50   29   49 1
    51   30   50 1
    52   31   32 1
    53   31   51 1
    54   31   52 1
    55   32   33 1
    56   32   53 1
    57   32   54 1
    58   33   55 1
@<TRIPOS>MOLECULE
ZINC61477039
   47    48     0     0     0
SMALL
USER_CHARGES

@<TRIPOS>ATOM
      1 C1         -0.0184    1.5028    0.0103 C.3       1 <0>        -0.0828
      2 C2          0.0021   -0.0041    0.0020 C.ar      1 <0>        -0.1278
      3 C3          0.0057   -0.6864   -1.2003 C.ar      1 <0>        -0.0873
      4 C4          0.0249   -2.0660   -1.2160 C.ar      1 <0>        -0.1892
      5 C5          0.0401   -2.7778   -0.0151 C.ar      1 <0>        -0.0919
      6 C6          0.0365   -2.0898    1.1979 C.ar      1 <0>        -0.1854
      7 C7          0.0230   -0.7031    1.2031 C.ar      1 <0>         0.2770
      8 N1          0.0246   -0.0089    2.4155 N.2       1 <0>        -1.0917
      9 S1          0.0495   -0.8418    3.8466 S.o2      1 <0>         2.5234
     10 O1         -1.1751   -1.5624    3.8680 O.2       1 <0>        -1.0271
     11 O2          1.2938   -1.5280    3.8451 O.2       1 <0>        -1.0267
     12 C8          0.0436    0.4386    5.1314 C.3       1 <0>        -0.6374
     13 C9          0.0597   -4.2562   -0.0292 C.2       1 <0>         0.5661
     14 O3          0.0730   -4.8739    1.0176 O.2       1 <0>        -0.5367
     15 N2          0.0628   -4.9189   -1.2028 N.am      1 <0>        -0.5274
     16 N3          0.0813   -6.3197   -1.2162 N.am      1 <0>        -0.5149
     17 C10         0.0844   -6.9824   -2.3898 C.2       1 <0>         0.5178
     18 O4          0.0711   -6.3661   -3.4343 O.2       1 <0>        -0.5444
     19 C11         0.1043   -8.4892   -2.4042 C.3       1 <0>        -0.1307
     20 C12         0.1038   -8.9854   -3.8515 C.3       1 <0>         0.0764
     21 O5          0.1227  -10.4142   -3.8652 O.3       1 <0>        -0.3168
     22 C13         0.1248  -11.0196   -5.0820 C.ar      1 <0>         0.1328
     23 C14         0.1148  -10.2541   -6.2389 C.ar      1 <0>        -0.2075
     24 C15         0.1175  -10.8718   -7.4745 C.ar      1 <0>        -0.0802
     25 C16         0.1296  -12.2519   -7.5588 C.ar      1 <0>        -0.1608
     26 C17         0.1391  -13.0171   -6.4072 C.ar      1 <0>        -0.0829
     27 C18         0.1427  -12.4040   -5.1692 C.ar      1 <0>        -0.1535
     28 H1          1.0042    1.8801    0.0026 H         1 <0>         0.0509
     29 H2         -0.5455    1.8639   -0.8728 H         1 <0>         0.0404
     30 H3         -0.5286    1.8543    0.9071 H         1 <0>         0.0746
     31 H4         -0.0068   -0.1377   -2.1305 H         1 <0>         0.1124
     32 H5          0.0277   -2.5953   -2.1575 H         1 <0>         0.1050
     33 H6          0.0478   -2.6350    2.1302 H         1 <0>         0.1185
     34 H7         -0.8559    1.0466    5.0344 H         1 <0>         0.1151
     35 H8          0.0593   -0.0327    6.1142 H         1 <0>         0.1012
     36 H9          0.9238    1.0714    5.0179 H         1 <0>         0.1152
     37 H10         0.0522   -4.4260   -2.0382 H         1 <0>         0.4324
     38 H11         0.0919   -6.8126   -0.3809 H         1 <0>         0.4330
     39 H12         1.0015   -8.8456   -1.8982 H         1 <0>         0.1122
     40 H13        -0.7783   -8.8692   -1.8896 H         1 <0>         0.1123
     41 H14        -0.7934   -8.6290   -4.3575 H         1 <0>         0.0746
     42 H15         0.9863   -8.6054   -4.3662 H         1 <0>         0.0746
     43 H16         0.1046   -9.1761   -6.1737 H         1 <0>         0.1315
     44 H17         0.1097  -10.2764   -8.3755 H         1 <0>         0.1248
     45 H18         0.1313  -12.7330   -8.5257 H         1 <0>         0.1225
     46 H19         0.1482  -14.0948   -6.4756 H         1 <0>         0.1282
     47 H20         0.1546  -13.0021   -4.2700 H         1 <0>         0.1304
@<TRIPOS>BOND
     1    1    2 1
     2    1   28 1
     3    1   29 1
     4    1   30 1
     5    2    7 ar
     6    2    3 ar
     7    3    4 ar
     8    3   31 1
     9    4    5 ar
    10    4   32 1
    11    5    6 ar
    12    5   13 1
    13    6    7 ar
    14    6   33 1
    15    7    8 1
    16    8    9 1
    17    9   10 2
    18    9   11 2
    19    9   12 1
    20   12   34 1
    21   12   35 1
    22   12   36 1
    23   13   14 2
    24   13   15 am
    25   15   16 1
    26   15   37 1
    27   16   17 am
    28   16   38 1
    29   17   18 2
    30   17   19 1
    31   19   20 1
    32   19   39 1
    33   19   40 1
    34   20   21 1
    35   20   41 1
    36   20   42 1
    37   21   22 1
    38   22   27 ar
    39   22   23 ar
    40   23   24 ar
    41   23   43 1
    42   24   25 ar
    43   24   44 1
    44   25   26 ar
    45   25   45 1
    46   26   27 ar
    47   26   46 1
    48   27   47 1
@<TRIPOS>MOLECULE
ZINC08790303
   67    67     0     0     0
SMALL
USER_CHARGES
2-[4-[(4-methylsulfanyl-2-tert-butoxycarbonylamino-butanoyl)aminomethyl]cyclohexyl]carbonylaminopropanoic acid
@<TRIPOS>ATOM
      1 C1         -4.0075   11.9706    5.0228 C.3       1 <0>        -0.1369
      2 C2         -2.9706   11.3651    4.0746 C.3       1 <0>         0.0939
      3 H1         -1.9728   11.6839    4.3759 H         1 <0>         0.0874
      4 C3         -3.2436   11.8315    2.6678 C.2       1 <0>         0.4632
      5 O1         -3.4829   11.0256    1.7999 O.co2     1 <0>        -0.6356
      6 N1         -3.0536    9.9035    4.1292 N.am      1 <0>        -0.6989
      7 C4         -2.3861    9.2259    5.0841 C.2       1 <0>         0.5087
      8 O2         -1.7168    9.8261    5.8981 O.2       1 <0>        -0.5575
      9 C5         -2.4714    7.7223    5.1403 C.3       1 <0>        -0.1053
     10 H2         -3.5098    7.4224    5.2816 H         1 <0>         0.0935
     11 C6         -1.6282    7.2070    6.3084 C.3       1 <0>        -0.0958
     12 C7         -1.7149    5.6805    6.3654 C.3       1 <0>        -0.1092
     13 C8         -1.1873    5.0904    5.0561 C.3       1 <0>        -0.1022
     14 H3         -0.1489    5.3903    4.9148 H         1 <0>         0.0805
     15 C9         -2.0305    5.6058    3.8881 C.3       1 <0>        -0.1117
     16 C10        -1.9438    7.1322    3.8310 C.3       1 <0>        -0.1132
     17 C11        -1.2739    3.5639    5.1132 C.3       1 <0>         0.1239
     18 N2         -0.6599    2.9946    3.9111 N.am      1 <0>        -0.7183
     19 C12        -0.6205    1.6580    3.7429 C.2       1 <0>         0.5140
     20 O3         -1.0934    0.9264    4.5868 O.2       1 <0>        -0.5308
     21 C13         0.0111    1.0724    2.5063 C.3       1 <0>         0.1516
     22 H4          1.0569    1.3753    2.4543 H         1 <0>         0.1224
     23 C14        -0.7288    1.5792    1.2668 C.3       1 <0>        -0.1145
     24 C15        -0.0127    1.0858    0.0080 C.3       1 <0>        -0.0738
     25 S1         -0.8901    1.6867   -1.4616 S.3       1 <0>        -0.2712
     26 C16         0.0725    1.0239   -2.8490 C.3       1 <0>        -0.1162
     27 N3         -0.0718   -0.3892    2.5610 N.am      1 <0>        -0.6939
     28 C17         0.8174   -1.1405    1.8818 C.2       1 <0>         0.6562
     29 O4          1.6879   -0.6056    1.2241 O.2       1 <0>        -0.5656
     30 O5          0.7411   -2.4838    1.9320 O.3       1 <0>        -0.3605
     31 C18         1.7317   -3.2290    1.1759 C.3       1 <0>         0.1373
     32 C19         3.1315   -2.8774    1.6839 C.3       1 <0>        -0.1841
     33 C20         1.4865   -4.7288    1.3535 C.3       1 <0>        -0.1422
     34 C21         1.6210   -2.8661   -0.3063 C.3       1 <0>        -0.1841
     35 H5         -3.9457   13.0581    4.9822 H         1 <0>         0.0705
     36 H6         -5.0053   11.6518    4.7216 H         1 <0>         0.0473
     37 H7         -3.8100   11.6333    6.0404 H         1 <0>         0.0472
     38 H8         -3.5889    9.4234    3.4782 H         1 <0>         0.4036
     39 H9         -2.0041    7.6273    7.2411 H         1 <0>         0.0710
     40 H10        -0.5899    7.5069    6.1671 H         1 <0>         0.0701
     41 H11        -2.7532    5.3805    6.5068 H         1 <0>         0.0666
     42 H12        -1.1142    5.3133    7.1976 H         1 <0>         0.0674
     43 H13        -1.6546    5.1854    2.9553 H         1 <0>         0.0646
     44 H14        -3.0688    5.3058    4.0294 H         1 <0>         0.0685
     45 H15        -2.5445    7.4994    2.9989 H         1 <0>         0.0760
     46 H16        -0.9055    7.4322    3.6897 H         1 <0>         0.0688
     47 H17        -2.3197    3.2611    5.1652 H         1 <0>         0.0728
     48 H18        -0.7467    3.2028    5.9963 H         1 <0>         0.0709
     49 H19        -0.2816    3.5797    3.2362 H         1 <0>         0.4051
     50 H20        -0.7436    2.6691    1.2728 H         1 <0>         0.0927
     51 H21        -1.7514    1.2020    1.2746 H         1 <0>         0.0852
     52 H22         0.0021   -0.0041    0.0020 H         1 <0>         0.0842
     53 H23         1.0099    1.4631    0.0003 H         1 <0>         0.0911
     54 H24        -0.3829    1.3356   -3.7889 H         1 <0>         0.1013
     55 H25         1.0933    1.4025   -2.7967 H         1 <0>         0.0768
     56 H26         0.0855   -0.0647   -2.7949 H         1 <0>         0.0736
     57 H27        -0.7667   -0.8163    3.0860 H         1 <0>         0.4171
     58 H28         3.2104   -3.1360    2.7398 H         1 <0>         0.0601
     59 H29         3.8751   -3.4369    1.1163 H         1 <0>         0.0706
     60 H30         3.3061   -1.8090    1.5574 H         1 <0>         0.0883
     61 H31         0.4893   -4.9793    0.9916 H         1 <0>         0.0672
     62 H32         2.2302   -5.2882    0.7859 H         1 <0>         0.0811
     63 H33         1.5654   -4.9873    2.4095 H         1 <0>         0.0675
     64 H34         1.7956   -1.7977   -0.4328 H         1 <0>         0.0866
     65 H35         2.3646   -3.4255   -0.8738 H         1 <0>         0.0711
     66 H36         0.6238   -3.1166   -0.6681 H         1 <0>         0.0597
     67 O6         -3.2208   13.1421    2.3790 O.co2     1 <0>        -0.7558
@<TRIPOS>BOND
     1    1    2 1
     2    1   35 1
     3    1   36 1
     4    1   37 1
     5    2    3 1
     6    2    4 1
     7    2    6 1
     8    4    5 2
     9    4   67 1
    10    6    7 am
    11    6   38 1
    12    7    8 2
    13    7    9 1
    14    9   10 1
    15    9   16 1
    16    9   11 1
    17   11   12 1
    18   11   39 1
    19   11   40 1
    20   12   13 1
    21   12   41 1
    22   12   42 1
    23   13   14 1
    24   13   15 1
    25   13   17 1
    26   15   16 1
    27   15   43 1
    28   15   44 1
    29   16   45 1
    30   16   46 1
    31   17   18 1
    32   17   47 1
    33   17   48 1
    34   18   19 am
    35   18   49 1
    36   19   20 2
    37   19   21 1
    38   21   22 1
    39   21   23 1
    40   21   27 1
    41   23   24 1
    42   23   50 1
    43   23   51 1
    44   24   25 1
    45   24   52 1
    46   24   53 1
    47   25   26 1
    48   26   54 1
    49   26   55 1
    50   26   56 1
    51   27   28 am
    52   27   57 1
    53   28   29 2
    54   28   30 1
    55   30   31 1
    56   31   32 1
    57   31   33 1
    58   31   34 1
    59   32   58 1
    60   32   59 1
    61   32   60 1
    62   33   61 1
    63   33   62 1
    64   33   63 1
    65   34   64 1
    66   34   65 1
    67   34   66 1
@<TRIPOS>MOLECULE
ZINC13461713
   53    55     0     0     0
SMALL
USER_CHARGES
2-[4-[[(1S,2S)-2-hydroxy-1-(hydroxymethyl)-2-(4-nitrophenyl)ethyl]amino]-3-nitro-benzoyl]benzoic acid
@<TRIPOS>ATOM
      1 C1         -4.0166    0.4896    9.9312 C.ar      1 <0>        -0.1244
      2 C2         -2.7275    0.0023   10.0584 C.ar      1 <0>        -0.1220
      3 C3         -1.7040    0.5213    9.2880 C.ar      1 <0>        -0.0804
      4 C4         -1.9669    1.5410    8.3767 C.ar      1 <0>        -0.0847
      5 C5         -3.2784    2.0367    8.2473 C.ar      1 <0>        -0.1230
      6 C6         -4.2957    1.5047    9.0361 C.ar      1 <0>        -0.1046
      7 C7         -3.5728    3.1196    7.2842 C.2       1 <0>         0.4809
      8 O1         -3.7344    4.2579    7.6800 O.2       1 <0>        -0.4542
      9 C8         -3.6703    2.8193    5.8449 C.ar      1 <0>        -0.1619
     10 C9         -3.6020    1.4943    5.3986 C.ar      1 <0>         0.0265
     11 C10        -3.6984    1.2192    4.0644 C.ar      1 <0>        -0.2083
     12 C11        -3.8539    2.2562    3.1471 C.ar      1 <0>         0.2954
     13 C12        -3.9223    3.5757    3.5876 C.ar      1 <0>        -0.1218
     14 C13        -3.8318    3.8578    4.9211 C.ar      1 <0>         0.0422
     15 N1         -4.0927    4.6736    2.6096 N.pl3     1 <0>         0.0424
     16 O2         -3.5141    5.7324    2.7757 O.2       1 <0>        -0.1405
     17 O3         -4.8115    4.5182    1.6387 O.3       1 <0>        -0.1957
     18 N2         -3.9467    1.9729    1.7900 N.pl3     1 <0>        -0.7165
     19 C14        -3.7746    0.5976    1.3153 C.3       1 <0>         0.1131
     20 H1         -3.0308    0.0913    1.9306 H         1 <0>         0.1116
     21 C15        -5.1082   -0.1460    1.4122 C.3       1 <0>         0.0644
     22 O4         -6.0508    0.4477    0.5171 O.3       1 <0>        -0.5473
     23 C16        -3.3053    0.6156   -0.1408 C.3       1 <0>         0.1459
     24 H2         -3.1773   -0.4076   -0.4940 H         1 <0>         0.1313
     25 C17        -1.9918    1.3481   -0.2362 C.ar      1 <0>        -0.0724
     26 C18        -0.8082    0.6378   -0.3116 C.ar      1 <0>        -0.1065
     27 C19         0.3963    1.3096   -0.4048 C.ar      1 <0>        -0.0484
     28 C20         0.4177    2.6917   -0.4173 C.ar      1 <0>        -0.0395
     29 C21        -0.7655    3.4021   -0.3366 C.ar      1 <0>        -0.0446
     30 C22        -1.9700    2.7303   -0.2429 C.ar      1 <0>        -0.1096
     31 N3          1.7074    3.4111   -0.5176 N.pl3     1 <0>         0.0273
     32 O5          2.7499    2.7852   -0.5891 O.2       1 <0>        -0.1573
     33 O6          1.7262    4.6289   -0.5287 O.3       1 <0>        -0.1537
     34 O7         -4.2805    1.2794   -0.9474 O.3       1 <0>        -0.5196
     35 C23        -0.8760    2.0991    7.5501 C.2       1 <0>         0.4832
     36 O8         -1.0864    3.0565    6.8330 O.co2     1 <0>        -0.6094
     37 H3         -4.8086    0.0769   10.5386 H         1 <0>         0.1223
     38 H4         -2.5199   -0.7882   10.7644 H         1 <0>         0.1219
     39 H5         -0.7004    0.1364    9.3930 H         1 <0>         0.1369
     40 H6         -5.3033    1.8828    8.9453 H         1 <0>         0.1219
     41 H7         -3.4773    0.6903    6.1088 H         1 <0>         0.1441
     42 H8         -3.6503    0.1968    3.7197 H         1 <0>         0.1448
     43 H9         -3.8853    4.8812    5.2620 H         1 <0>         0.1550
     44 H10        -4.1255    2.6857    1.1569 H         1 <0>         0.4084
     45 H11        -4.9613   -1.1921    1.1436 H         1 <0>         0.0585
     46 H12        -5.4864   -0.0825    2.4325 H         1 <0>         0.0562
     47 H13        -6.9209    0.0259    0.5257 H         1 <0>         0.3767
     48 H14        -0.8250   -0.4420   -0.3021 H         1 <0>         0.1513
     49 H15         1.3206    0.7547   -0.4682 H         1 <0>         0.1576
     50 H16        -0.7488    4.4819   -0.3464 H         1 <0>         0.1574
     51 H17        -2.8943    3.2852   -0.1795 H         1 <0>         0.1371
     52 H18        -4.4458    2.1966   -0.6895 H         1 <0>         0.3741
     53 O9          0.3515    1.5459    7.5922 O.co2     1 <0>        -0.7423
@<TRIPOS>BOND
     1    1    6 ar
     2    1    2 ar
     3    1   37 1
     4    2    3 ar
     5    2   38 1
     6    3    4 ar
     7    3   39 1
     8    4    5 ar
     9    4   35 1
    10    5    6 ar
    11    5    7 1
    12    6   40 1
    13    7    8 2
    14    7    9 1
    15    9   14 ar
    16    9   10 ar
    17   10   11 ar
    18   10   41 1
    19   11   12 ar
    20   11   42 1
    21   12   13 ar
    22   12   18 1
    23   13   14 ar
    24   13   15 1
    25   14   43 1
    26   15   16 2
    27   15   17 1
    28   18   19 1
    29   18   44 1
    30   19   20 1
    31   19   21 1
    32   19   23 1
    33   21   22 1
    34   21   45 1
    35   21   46 1
    36   22   47 1
    37   23   24 1
    38   23   25 1
    39   23   34 1
    40   25   30 ar
    41   25   26 ar
    42   26   27 ar
    43   26   48 1
    44   27   28 ar
    45   27   49 1
    46   28   29 ar
    47   28   31 1
    48   29   30 ar
    49   29   50 1
    50   30   51 1
    51   31   32 2
    52   31   33 1
    53   34   52 1
    54   35   36 2
    55   35   53 1
@<TRIPOS>MOLECULE
ZINC21318624
   51    53     0     0     0
SMALL
USER_CHARGES
2-[[4-amino-5-[(N'E)-N'-[(3,5-dichloro-2-hydroxy-phenyl)methylene]hydrazino]-1,2,4-triazol-3-yl]sulfanyl]-N-(2,4-dimethoxyphenyl)acetamide
@<TRIPOS>ATOM
      1 C1          3.6093   -1.8992   -0.7320 C.3       1 <0>         0.0236
      2 O1          3.5918   -0.6274   -0.0807 O.3       1 <0>        -0.3176
      3 C2          2.4052    0.0358   -0.0532 C.ar      1 <0>         0.1470
      4 C3          1.2825   -0.5281   -0.6416 C.ar      1 <0>        -0.2211
      5 C4          0.0753    0.1438   -0.6162 C.ar      1 <0>        -0.0572
      6 C5         -0.0163    1.3837   -0.0015 C.ar      1 <0>         0.0937
      7 C6          1.1098    1.9511    0.5901 C.ar      1 <0>         0.1394
      8 C7          2.3186    1.2753    0.5625 C.ar      1 <0>        -0.2233
      9 O2          1.0229    3.1667    1.1929 O.3       1 <0>        -0.3134
     10 C8          2.2178    3.6873    1.7787 C.3       1 <0>         0.0245
     11 N1         -1.2408    2.0684    0.0192 N.am      1 <0>        -0.6658
     12 C9         -2.3974    1.3839   -0.0808 C.2       1 <0>         0.5400
     13 O3         -2.3857    0.1710   -0.0876 O.2       1 <0>        -0.5153
     14 C10        -3.7053    2.1254   -0.1841 C.3       1 <0>        -0.1431
     15 S1         -5.0680    0.9340   -0.3043 S.3       1 <0>         0.0598
     16 C11        -6.5079    1.9433   -0.4168 C.2       1 <0>         0.1575
     17 N2         -6.5331    3.2546   -0.4047 N.2       1 <0>        -0.3083
     18 N3         -7.8684    3.6630   -0.5182 N.2       1 <0>        -0.2956
     19 C12        -8.6162    2.5883   -0.5869 C.2       1 <0>         0.5028
     20 N4         -7.7944    1.4973   -0.5260 N.pl3     1 <0>        -0.2722
     21 N5         -8.1904    0.1906   -0.5678 N.3       1 <0>        -0.7798
     22 N6         -9.9986    2.5627   -0.7013 N.pl3     1 <0>        -0.5771
     23 N7        -10.7195    3.7628   -0.7531 N.2       1 <0>        -0.1585
     24 C13       -12.0136    3.7388   -0.8602 C.2       1 <0>         0.1176
     25 C14       -12.7720    5.0012   -0.9148 C.ar      1 <0>        -0.2021
     26 C15       -14.1642    4.9796   -1.0299 C.ar      1 <0>        -0.0201
     27 C16       -14.8688    6.1652   -1.0801 C.ar      1 <0>        -0.1666
     28 C17       -14.2010    7.3773   -1.0171 C.ar      1 <0>        -0.0414
     29 C18       -12.8229    7.4110   -0.9026 C.ar      1 <0>        -0.1564
     30 C19       -12.1012    6.2292   -0.8456 C.ar      1 <0>         0.2981
     31 O4        -10.7478    6.2615   -0.7283 O.3       1 <0>        -0.6161
     32 Cl1       -11.9967    8.9358   -0.8245 Cl        1 <0>        -0.0967
     33 Cl2       -16.5987    6.1374   -1.2232 Cl        1 <0>        -0.1158
     34 H1          4.6232   -2.3229   -0.6818 H         1 <0>         0.1013
     35 H2          3.3151   -1.7761   -1.7847 H         1 <0>         0.0580
     36 H3          2.9031   -2.5775   -0.2308 H         1 <0>         0.0583
     37 H4          1.3522   -1.4935   -1.1206 H         1 <0>         0.1332
     38 H5         -0.7972   -0.2968   -1.0755 H         1 <0>         0.1571
     39 H6          3.1932    1.7137    1.0200 H         1 <0>         0.1402
     40 H7          2.0081    4.6690    2.2284 H         1 <0>         0.1049
     41 H8          2.9892    3.7969    1.0022 H         1 <0>         0.0588
     42 H9          2.5759    2.9967    2.5564 H         1 <0>         0.0585
     43 H10        -1.2568    3.1639    0.1171 H         1 <0>         0.4451
     44 H11        -3.8434    2.7515    0.7097 H         1 <0>         0.1313
     45 H12        -3.6955    2.7630   -1.0804 H         1 <0>         0.1321
     46 H13        -9.2582   -0.0579   -0.6576 H         1 <0>         0.4349
     47 H14        -7.4415   -0.6131   -0.5117 H         1 <0>         0.4412
     48 H15       -10.5286    1.6001   -0.7513 H         1 <0>         0.3812
     49 H16       -12.5436    2.7762   -0.9102 H         1 <0>         0.0988
     50 H17       -14.6881    4.0365   -1.0800 H         1 <0>         0.1112
     51 H18       -14.7594    8.3009   -1.0573 H         1 <0>         0.1134
@<TRIPOS>BOND
     1    1    2 1
     2    1   34 1
     3    1   35 1
     4    1   36 1
     5    2    3 1
     6    3    8 ar
     7    3    4 ar
     8    4    5 ar
     9    4   37 1
    10    5    6 ar
    11    5   38 1
    12    6    7 ar
    13    6   11 1
    14    7    8 ar
    15    7    9 1
    16    8   39 1
    17    9   10 1
    18   10   40 1
    19   10   41 1
    20   10   42 1
    21   11   12 am
    22   11   43 1
    23   12   13 2
    24   12   14 1
    25   14   15 1
    26   14   44 1
    27   14   45 1
    28   15   16 1
    29   16   20 1
    30   16   17 2
    31   17   18 1
    32   18   19 2
    33   19   20 1
    34   19   22 1
    35   20   21 1
    36   21   46 1
    37   21   47 1
    38   22   23 1
    39   22   48 1
    40   23   24 2
    41   24   25 1
    42   24   49 1
    43   25   30 ar
    44   25   26 ar
    45   26   27 ar
    46   26   50 1
    47   27   28 ar
    48   27   33 1
    49   28   29 ar
    50   28   51 1
    51   29   30 ar
    52   29   32 1
    53   30   31 1
@<TRIPOS>MOLECULE
ZINC15776629
   48    49     0     0     0
SMALL
USER_CHARGES

@<TRIPOS>ATOM
      1 C1         -0.1977    1.5440   -0.1183 C.3       1 <0>        -0.1474
      2 C2         -0.1539    0.0167   -0.0384 C.3       1 <0>         0.0624
      3 O1         -1.4170   -0.5176   -0.4398 O.3       1 <0>        -0.3108
      4 C3         -1.5458   -1.8554   -0.4260 C.2       1 <0>         0.4916
      5 O2         -0.5124   -2.6261   -0.0461 O.3       1 <0>        -0.5831
      6 C4         -2.7527   -2.4442   -0.8062 C.2       1 <0>        -0.3650
      7 C5         -2.8879   -3.8481   -0.7917 C.2       1 <0>         0.3168
      8 N1         -1.8755   -4.6031   -0.4195 N.2       1 <0>        -0.5750
      9 C6         -2.0042   -5.9401   -0.4057 C.2       1 <0>         0.5508
     10 S1         -3.4847   -6.6624   -0.8720 S.2       1 <0>        -0.7612
     11 N2         -0.9679   -6.7130   -0.0248 N.pl3     1 <0>        -0.6126
     12 C7         -1.1285   -8.0989    0.0749 C.ar      1 <0>         0.1401
     13 C8         -1.7743   -8.7989   -0.9360 C.ar      1 <0>        -0.0550
     14 C9         -1.9316  -10.1672   -0.8351 C.ar      1 <0>        -0.1066
     15 C10        -1.4465  -10.8409    0.2722 C.ar      1 <0>        -0.0358
     16 C11        -0.8027  -10.1459    1.2809 C.ar      1 <0>        -0.1103
     17 C12        -0.6376   -8.7783    1.1823 C.ar      1 <0>        -0.1170
     18 Cl1        -1.6465  -12.5609    0.3961 Cl        1 <0>        -0.0809
     19 C13        -3.8812   -1.6026   -1.2210 C.2       1 <0>         0.5880
     20 O3         -3.7646   -0.3914   -1.2335 O.2       1 <0>        -0.5438
     21 N3         -5.0467   -2.1712   -1.5881 N.am      1 <0>        -0.5428
     22 N4         -6.1240   -1.3678   -1.9841 N.pl3     1 <0>        -0.5092
     23 C14        -7.3318   -1.9571   -2.3646 C.ar      1 <0>         0.2738
     24 C15        -7.4685   -3.3394   -2.3454 C.ar      1 <0>        -0.2021
     25 C16        -8.6643   -3.9187   -2.7217 C.ar      1 <0>         0.0071
     26 C17        -9.7248   -3.1245   -3.1178 C.ar      1 <0>        -0.1229
     27 C18        -9.5921   -1.7482   -3.1380 C.ar      1 <0>         0.0020
     28 C19        -8.4009   -1.1620   -2.7575 C.ar      1 <0>        -0.1972
     29 N5        -11.0047   -3.7490   -3.5214 N.pl3     1 <0>         0.0502
     30 O4        -11.1220   -4.9522   -3.5046 O.2       1 <0>        -0.1786
     31 O5        -11.9327   -3.0560   -3.8679 O.3       1 <0>        -0.1830
     32 H1          0.7658    1.9515    0.1879 H         1 <0>         0.0693
     33 H2         -0.4119    1.8483   -1.1428 H         1 <0>         0.0622
     34 H3         -0.9780    1.9202    0.5432 H         1 <0>         0.0622
     35 H4          0.6265   -0.3595   -0.6999 H         1 <0>         0.0585
     36 H5          0.0603   -0.2876    0.9861 H         1 <0>         0.0584
     37 H6         -3.8218   -4.3037   -1.0858 H         1 <0>         0.1203
     38 H7         -0.1106   -6.3082    0.1803 H         1 <0>         0.4142
     39 H8         -2.1534   -8.2736   -1.8002 H         1 <0>         0.1571
     40 H9         -2.4340  -10.7119   -1.6207 H         1 <0>         0.1342
     41 H10        -0.4250  -10.6741    2.1439 H         1 <0>         0.1331
     42 H11        -0.1308   -8.2371    1.9676 H         1 <0>         0.1317
     43 H12        -5.1396   -3.1367   -1.5781 H         1 <0>         0.4224
     44 H13        -6.0310   -0.4024   -1.9941 H         1 <0>         0.4387
     45 H14        -6.6404   -3.9603   -2.0368 H         1 <0>         0.1438
     46 H15        -8.7712   -4.9933   -2.7070 H         1 <0>         0.1529
     47 H16       -10.4223   -1.1308   -3.4479 H         1 <0>         0.1516
     48 H17        -8.2995   -0.0869   -2.7692 H         1 <0>         0.1467
@<TRIPOS>BOND
     1    1    2 1
     2    1   32 1
     3    1   33 1
     4    1   34 1
     5    2    3 1
     6    2   35 1
     7    2   36 1
     8    3    4 1
     9    4    5 1
    10    4    6 2
    11    6   19 1
    12    6    7 1
    13    7   37 1
    14    7    8 2
    15    8    9 1
    16    9   10 2
    17    9   11 1
    18   11   12 1
    19   11   38 1
    20   12   17 ar
    21   12   13 ar
    22   13   14 ar
    23   13   39 1
    24   14   15 ar
    25   14   40 1
    26   15   16 ar
    27   15   18 1
    28   16   17 ar
    29   16   41 1
    30   17   42 1
    31   19   20 2
    32   19   21 am
    33   21   22 1
    34   21   43 1
    35   22   23 1
    36   22   44 1
    37   23   28 ar
    38   23   24 ar
    39   24   25 ar
    40   24   45 1
    41   25   26 ar
    42   25   46 1
    43   26   27 ar
    44   26   29 1
    45   27   28 ar
    46   27   47 1
    47   28   48 1
    48   29   30 2
    49   29   31 1
@<TRIPOS>MOLECULE
ZINC13125591
   53    56     0     0     0
SMALL
USER_CHARGES

@<TRIPOS>ATOM
      1 C1         -1.7941   -9.3486   -4.4437 C.3       1 <0>        -0.1524
      2 C2         -1.6653   -8.5239   -3.1615 C.3       1 <0>         0.0556
      3 O1         -0.3652   -8.7158   -2.6003 O.3       1 <0>        -0.3186
      4 C3         -0.0850   -8.0485   -1.4492 C.ar      1 <0>         0.1067
      5 C4         -1.0449   -7.2311   -0.8705 C.ar      1 <0>        -0.1952
      6 C5         -0.7609   -6.5528    0.2983 C.ar      1 <0>        -0.1136
      7 C6          0.4856   -6.6893    0.8946 C.ar      1 <0>         0.1370
      8 C7          1.4458   -7.5080    0.3150 C.ar      1 <0>        -0.0576
      9 C8          1.1586   -8.1898   -0.8510 C.ar      1 <0>        -0.1308
     10 N1          0.7745   -6.0011    2.0800 N.pl3     1 <0>        -0.6574
     11 C9          1.5618   -6.5856    3.0369 C.2       1 <0>         0.6588
     12 N2          1.8418   -5.9140    4.1969 N.pl3     1 <0>        -0.8526
     13 N3          2.0493   -7.7931    2.8410 N.2       1 <0>        -0.5823
     14 C10         2.9378   -8.3200    3.7267 C.ar      1 <0>         0.5385
     15 N4          3.4013   -7.5580    4.7140 N.ar      1 <0>        -0.6422
     16 C11         4.2678   -8.0446    5.5924 C.ar      1 <0>         0.4467
     17 O2          4.7375   -7.2658    6.5970 O.3       1 <0>        -0.7073
     18 C12         4.6889   -9.3688    5.4688 C.ar      1 <0>        -0.3296
     19 C13         4.1853  -10.1298    4.4299 C.ar      1 <0>         0.1842
     20 N5          3.3191   -9.5870    3.5891 N.ar      1 <0>        -0.5808
     21 C14         4.6139  -11.5646    4.2601 C.3       1 <0>        -0.0450
     22 S1          3.4914  -12.6450    5.1893 S.3       1 <0>         0.0656
     23 C15         4.1174  -14.2653    4.8937 C.2       1 <0>         0.2231
     24 N6          5.1671  -14.5773    4.1644 N.2       1 <0>        -0.3320
     25 N7          5.3485  -15.8486    4.1576 N.2       1 <0>        -0.0273
     26 N8          4.4468  -16.4351    4.8678 N.2       1 <0>        -0.0848
     27 N9          3.6116  -15.4267    5.3799 N.pl3     1 <0>        -0.3207
     28 C16         2.4950  -15.5869    6.2127 C.ar      1 <0>         0.1283
     29 C17         2.2057  -14.6334    7.1794 C.ar      1 <0>        -0.1106
     30 C18         1.1048  -14.7937    7.9980 C.ar      1 <0>        -0.0944
     31 C19         0.2913  -15.9027    7.8556 C.ar      1 <0>        -0.1078
     32 C20         0.5768  -16.8541    6.8936 C.ar      1 <0>        -0.1039
     33 C21         1.6731  -16.6964    6.0683 C.ar      1 <0>        -0.0972
     34 H1         -1.6502  -10.4041   -4.2128 H         1 <0>         0.0658
     35 H2         -2.7858   -9.2023   -4.8718 H         1 <0>         0.0749
     36 H3         -1.0381   -9.0271   -5.1601 H         1 <0>         0.0649
     37 H4         -1.8091   -7.4684   -3.3924 H         1 <0>         0.0585
     38 H5         -2.4213   -8.8455   -2.4452 H         1 <0>         0.0593
     39 H6         -2.0144   -7.1250   -1.3344 H         1 <0>         0.1245
     40 H7         -1.5081   -5.9159    0.7483 H         1 <0>         0.1225
     41 H8          2.4157   -7.6144    0.7780 H         1 <0>         0.1530
     42 H9          1.9038   -8.8301   -1.2995 H         1 <0>         0.1305
     43 H10         0.4172   -5.1108    2.2233 H         1 <0>         0.4112
     44 H11         1.8816   -6.3951    5.0383 H         1 <0>         0.4267
     45 H12         5.3939   -9.7907    6.1697 H         1 <0>         0.1123
     46 H13         4.5824  -11.8305    3.2035 H         1 <0>         0.1131
     47 H14         5.6298  -11.6871    4.6356 H         1 <0>         0.1096
     48 H15         2.8412  -13.7673    7.2916 H         1 <0>         0.1426
     49 H16         0.8793  -14.0522    8.7502 H         1 <0>         0.1400
     50 H17        -0.5686  -16.0263    8.4972 H         1 <0>         0.1333
     51 H18        -0.0602  -17.7195    6.7850 H         1 <0>         0.1360
     52 H19         1.8931  -17.4376    5.3142 H         1 <0>         0.1360
     53 H20         2.0003   -4.9573    4.1773 H         1 <0>         0.3846
@<TRIPOS>BOND
     1    1    2 1
     2    1   34 1
     3    1   35 1
     4    1   36 1
     5    2    3 1
     6    2   37 1
     7    2   38 1
     8    3    4 1
     9    4    9 ar
    10    4    5 ar
    11    5    6 ar
    12    5   39 1
    13    6    7 ar
    14    6   40 1
    15    7    8 ar
    16    7   10 1
    17    8    9 ar
    18    8   41 1
    19    9   42 1
    20   10   11 1
    21   10   43 1
    22   11   12 1
    23   11   13 2
    24   12   44 1
    25   12   53 1
    26   13   14 1
    27   14   20 ar
    28   14   15 ar
    29   15   16 ar
    30   16   17 1
    31   16   18 ar
    32   18   19 ar
    33   18   45 1
    34   19   20 ar
    35   19   21 1
    36   21   22 1
    37   21   46 1
    38   21   47 1
    39   22   23 1
    40   23   27 1
    41   23   24 2
    42   24   25 1
    43   25   26 2
    44   26   27 1
    45   27   28 1
    46   28   33 ar
    47   28   29 ar
    48   29   30 ar
    49   29   48 1
    50   30   31 ar
    51   30   49 1
    52   31   32 ar
    53   31   50 1
    54   32   33 ar
    55   32   51 1
    56   33   52 1
@<TRIPOS>MOLECULE
ZINC10042166
   51    52     0     0     0
SMALL
USER_CHARGES
2-[3-[[2-(2,4-dichlorobenzoyl)amino-3-methyl-butanoyl]aminoiminomethyl]phenoxy]acetic acid
@<TRIPOS>ATOM
      1 C1          6.2490    5.8914    1.2727 C.3       1 <0>        -0.1590
      2 C2          7.4539    4.9666    1.0890 C.3       1 <0>        -0.0998
      3 C3          7.5796    4.0453    2.3040 C.3       1 <0>        -0.1523
      4 C4          7.2616    4.1230   -0.1729 C.3       1 <0>         0.1407
      5 H1          7.0799    4.7790   -1.0243 H         1 <0>         0.1148
      6 C5          6.0827    3.2028    0.0128 C.2       1 <0>         0.5363
      7 O1          6.2516    2.0787    0.4363 O.2       1 <0>        -0.4977
      8 N1          4.8408    3.6288   -0.2916 N.am      1 <0>        -0.5802
      9 N2          3.7587    2.7418   -0.2196 N.2       1 <0>        -0.2357
     10 C6          2.5631    3.1519   -0.5126 C.2       1 <0>         0.1324
     11 C7          1.4239    2.2182   -0.4368 C.ar      1 <0>        -0.0300
     12 C8          1.6291    0.8914   -0.0496 C.ar      1 <0>        -0.1261
     13 C9          0.5612    0.0211    0.0196 C.ar      1 <0>        -0.0857
     14 C10        -0.7126    0.4557   -0.2985 C.ar      1 <0>        -0.1943
     15 C11        -0.9276    1.7736   -0.6787 C.ar      1 <0>         0.1359
     16 C12         0.1366    2.6564   -0.7519 C.ar      1 <0>        -0.1262
     17 O2         -2.1826    2.1960   -0.9846 O.3       1 <0>        -0.2863
     18 C13        -3.2332    1.2322   -0.8876 C.3       1 <0>         0.0176
     19 C14        -4.5428    1.8773   -1.2616 C.2       1 <0>         0.4689
     20 O3         -4.5733    3.0428   -1.5787 O.co2     1 <0>        -0.6137
     21 N3          8.4677    3.3282   -0.4175 N.am      1 <0>        -0.7079
     22 C15         9.5040    3.8659   -1.0909 C.2       1 <0>         0.5604
     23 O4          9.4379    5.0104   -1.4953 O.2       1 <0>        -0.5066
     24 C16        10.7201    3.0646   -1.3375 C.ar      1 <0>        -0.1265
     25 C17        10.7993    1.7494   -0.8742 C.ar      1 <0>        -0.0591
     26 C18        11.9367    1.0065   -1.1073 C.ar      1 <0>        -0.1133
     27 C19        13.0010    1.5613   -1.7998 C.ar      1 <0>         0.0005
     28 C20        12.9302    2.8642   -2.2617 C.ar      1 <0>        -0.1140
     29 C21        11.7940    3.6172   -2.0403 C.ar      1 <0>         0.0265
     30 Cl1        11.7028    5.2484   -2.6272 Cl        1 <0>        -0.0143
     31 Cl2        14.4296    0.6183   -2.0888 Cl        1 <0>        -0.0473
     32 H2          5.3362    5.2966    1.3061 H         1 <0>         0.0567
     33 H3          6.3555    6.4461    2.2049 H         1 <0>         0.0699
     34 H4          6.1969    6.5904    0.4379 H         1 <0>         0.0644
     35 H5          8.3597    5.5649    0.9915 H         1 <0>         0.0941
     36 H6          8.4380    3.3864    2.1732 H         1 <0>         0.0584
     37 H7          7.7166    4.6462    3.2030 H         1 <0>         0.0612
     38 H8          6.6738    3.4469    2.4015 H         1 <0>         0.0611
     39 H9          4.6962    4.5494   -0.5606 H         1 <0>         0.3871
     40 H10         2.4021    4.1770   -0.8121 H         1 <0>         0.1233
     41 H11         2.6232    0.5476    0.1955 H         1 <0>         0.1314
     42 H12         0.7209   -1.0042    0.3190 H         1 <0>         0.1258
     43 H13        -1.5441   -0.2316   -0.2466 H         1 <0>         0.1323
     44 H14        -0.0287    3.6805   -1.0522 H         1 <0>         0.1364
     45 H15        -3.0297    0.4034   -1.5657 H         1 <0>         0.0678
     46 H16        -3.2908    0.8593    0.1350 H         1 <0>         0.0678
     47 H17         8.5205    2.4150   -0.0948 H         1 <0>         0.4100
     48 H18         9.9706    1.3151   -0.3345 H         1 <0>         0.1475
     49 H19        11.9983   -0.0106   -0.7495 H         1 <0>         0.1492
     50 H20        13.7631    3.2910   -2.8009 H         1 <0>         0.1521
     51 O5         -5.6753    1.1571   -1.2425 O.co2     1 <0>        -0.7545
@<TRIPOS>BOND
     1    1    2 1
     2    1   32 1
     3    1   33 1
     4    1   34 1
     5    2    3 1
     6    2    4 1
     7    2   35 1
     8    3   36 1
     9    3   37 1
    10    3   38 1
    11    4    5 1
    12    4    6 1
    13    4   21 1
    14    6    7 2
    15    6    8 am
    16    8    9 1
    17    8   39 1
    18    9   10 2
    19   10   11 1
    20   10   40 1
    21   11   16 ar
    22   11   12 ar
    23   12   13 ar
    24   12   41 1
    25   13   14 ar
    26   13   42 1
    27   14   15 ar
    28   14   43 1
    29   15   16 ar
    30   15   17 1
    31   16   44 1
    32   17   18 1
    33   18   19 1
    34   18   45 1
    35   18   46 1
    36   19   20 2
    37   19   51 1
    38   21   22 am
    39   21   47 1
    40   22   23 2
    41   22   24 1
    42   24   29 ar
    43   24   25 ar
    44   25   26 ar
    45   25   48 1
    46   26   27 ar
    47   26   49 1
    48   27   28 ar
    49   27   31 1
    50   28   29 ar
    51   28   50 1
    52   29   30 1
@<TRIPOS>MOLECULE
ZINC13273413
   42    43     0     0     0
SMALL
USER_CHARGES
5-chloro-2-methoxy-4-[[2-[(5-propylamino-1,3,4-thiadiazol-2-yl)sulfanyl]acetyl]amino]benzoic acid
@<TRIPOS>ATOM
      1 C1          3.4445   19.1587    1.0505 C.3       1 <0>        -0.1497
      2 C2          4.5201   18.0717    1.0025 C.3       1 <0>        -0.1362
      3 C3          3.8540   16.7007    0.8694 C.3       1 <0>         0.1292
      4 N1          4.8839   15.6598    0.8235 N.pl3     1 <0>        -0.6726
      5 C4          4.5174   14.3243    0.7040 C.2       1 <0>         0.3484
      6 N2          3.3139   13.7927    0.6181 N.2       1 <0>        -0.3716
      7 N3          3.1742   12.4288    0.5046 N.2       1 <0>        -0.2781
      8 C5          4.2454   11.6591    0.4822 C.2       1 <0>         0.0285
      9 S1          5.5508   12.8690    0.6331 S.3       1 <0>        -0.0049
     10 S2          4.3580    9.9059    0.3474 S.3       1 <0>         0.1316
     11 C6          2.6307    9.3620    0.2413 C.3       1 <0>        -0.1585
     12 C7          2.5833    7.8606    0.1206 C.2       1 <0>         0.5349
     13 O1          3.6133    7.2205    0.1074 O.2       1 <0>        -0.4991
     14 N4          1.3962    7.2292    0.0272 N.am      1 <0>        -0.6526
     15 C8          1.3455    5.8355    0.0316 C.ar      1 <0>         0.1862
     16 C9          2.3666    5.1080    0.6284 C.ar      1 <0>        -0.2297
     17 C10         2.3198    3.7251    0.6343 C.ar      1 <0>         0.1836
     18 C11         1.2375    3.0614    0.0353 C.ar      1 <0>        -0.1474
     19 C12         0.2162    3.8030   -0.5687 C.ar      1 <0>        -0.0098
     20 C13         0.2702    5.1780   -0.5636 C.ar      1 <0>        -0.1151
     21 Cl1        -1.0014    6.0966   -1.3072 Cl        1 <0>        -0.0825
     22 C14         1.1803    1.5910    0.0373 C.2       1 <0>         0.4937
     23 O2          2.0712    0.9489    0.5582 O.co2     1 <0>        -0.6085
     24 O3          3.3165    3.0130    1.2174 O.3       1 <0>        -0.2640
     25 C15         4.3854    3.7559    1.8069 C.3       1 <0>         0.0195
     26 H1          3.9190   20.1354    1.1452 H         1 <0>         0.0626
     27 H2          2.8559   19.1282    0.1335 H         1 <0>         0.0598
     28 H3          2.7923   18.9870    1.9068 H         1 <0>         0.0598
     29 H4          5.1087   18.1022    1.9194 H         1 <0>         0.0716
     30 H5          5.1723   18.2434    0.1462 H         1 <0>         0.0716
     31 H6          3.2654   16.6702   -0.0475 H         1 <0>         0.0730
     32 H7          3.2018   16.5290    1.7257 H         1 <0>         0.0729
     33 H8          5.8215   15.9026    0.8765 H         1 <0>         0.4202
     34 H9          2.1613    9.8119   -0.6336 H         1 <0>         0.1317
     35 H10         2.0966    9.6714    1.1397 H         1 <0>         0.1324
     36 H11         0.5772    7.7442   -0.0430 H         1 <0>         0.4152
     37 H12         3.1975    5.6219    1.0887 H         1 <0>         0.1584
     38 H13        -0.6162    3.2966   -1.0347 H         1 <0>         0.1535
     39 H14         5.1128    3.0672    2.2366 H         1 <0>         0.0970
     40 H15         4.8689    4.3652    1.0433 H         1 <0>         0.0552
     41 H16         3.9899    4.4020    2.5906 H         1 <0>         0.0480
     42 O4          0.1400    0.9562   -0.5386 O.co2     1 <0>        -0.7583
@<TRIPOS>BOND
     1    1    2 1
     2    1   26 1
     3    1   27 1
     4    1   28 1
     5    2    3 1
     6    2   29 1
     7    2   30 1
     8    3    4 1
     9    3   31 1
    10    3   32 1
    11    4    5 1
    12    4   33 1
    13    5    9 1
    14    5    6 2
    15    6    7 1
    16    7    8 2
    17    8    9 1
    18    8   10 1
    19   10   11 1
    20   11   12 1
    21   11   34 1
    22   11   35 1
    23   12   13 2
    24   12   14 am
    25   14   15 1
    26   14   36 1
    27   15   20 ar
    28   15   16 ar
    29   16   17 ar
    30   16   37 1
    31   17   18 ar
    32   17   24 1
    33   18   19 ar
    34   18   22 1
    35   19   20 ar
    36   19   38 1
    37   20   21 1
    38   22   23 2
    39   22   42 1
    40   24   25 1
    41   25   39 1
    42   25   40 1
    43   25   41 1
@<TRIPOS>MOLECULE
ZINC26230785
   50    53     0     0     0
SMALL
USER_CHARGES
N'-cyclopropyl-N-[3-(cyclopropylsulfamoyl)phenyl]benzene-1,3-disulfonamide
@<TRIPOS>ATOM
      1 C1          4.4972    3.8994   -2.7624 C.ar      1 <0>        -0.1131
      2 C2          4.2205    2.8144   -1.9535 C.ar      1 <0>        -0.1672
      3 C3          3.4061    1.7913   -2.4213 C.ar      1 <0>         0.2111
      4 C4          2.8765    1.8605   -3.7039 C.ar      1 <0>        -0.0628
      5 C5          3.1532    2.9502   -4.5055 C.ar      1 <0>        -0.6562
      6 C6          3.9646    3.9674   -4.0365 C.ar      1 <0>        -0.0939
      7 S1          2.4776    3.0416   -6.1303 S.o2      1 <0>         2.6927
      8 O1          1.3115    2.2297   -6.1315 O.2       1 <0>        -0.9609
      9 O2          2.4477    4.4184   -6.4808 O.2       1 <0>        -0.9705
     10 N1          3.5603    2.3165   -7.1522 N.pl3     1 <0>        -1.1220
     11 C7          3.8384    0.8835   -7.0278 C.3       1 <0>         0.0259
     12 C8          5.2578    0.4091   -7.3457 C.3       1 <0>        -0.1455
     13 C9          4.1139    0.1031   -8.3146 C.3       1 <0>        -0.1416
     14 N2          3.1247    0.6925   -1.6062 N.2       1 <0>        -1.0615
     15 S2          2.7125    0.9230   -0.0189 S.o2      1 <0>         2.5858
     16 O3          3.6802    1.8086    0.5274 O.2       1 <0>        -1.0352
     17 O4          2.4642   -0.3651    0.5273 O.2       1 <0>        -0.9889
     18 C10         1.1748    1.7831    0.0004 C.ar      1 <0>        -0.6742
     19 C11         1.1561    3.1655    0.0076 C.ar      1 <0>         0.0253
     20 C12        -0.0501    3.8402    0.0223 C.ar      1 <0>        -0.1614
     21 C13        -1.2379    3.1327    0.0303 C.ar      1 <0>         0.0044
     22 C14        -1.2192    1.7508    0.0173 C.ar      1 <0>        -0.7074
     23 C15        -0.0126    1.0758    0.0080 C.ar      1 <0>         0.0733
     24 S3         -2.7330    0.8491    0.0196 S.o2      1 <0>         2.6957
     25 O5         -3.7218    1.7142   -0.5219 O.2       1 <0>        -0.9579
     26 O6         -2.4473   -0.4256   -0.5396 O.2       1 <0>        -0.9520
     27 N3         -3.1462    0.5899    1.6021 N.pl3     1 <0>        -1.1215
     28 C16        -3.4765    1.7244    2.4682 C.3       1 <0>         0.0198
     29 C17        -3.0892    1.6221    3.9448 C.3       1 <0>        -0.1439
     30 C18        -4.5583    1.5118    3.5291 C.3       1 <0>        -0.1362
     31 H1          5.1304    4.6953   -2.3993 H         1 <0>         0.1156
     32 H2          4.6374    2.7616   -0.9586 H         1 <0>         0.1498
     33 H3          2.2464    1.0644   -4.0723 H         1 <0>         0.1296
     34 H4          4.1831    4.8165   -4.6672 H         1 <0>         0.1215
     35 H5          4.1837    2.9429   -7.8071 H         1 <0>         0.4206
     36 H6          3.1434    0.7961   -6.1796 H         1 <0>         0.1217
     37 H7          5.9284    1.2784   -7.4133 H         1 <0>         0.1063
     38 H8          5.6074   -0.2624   -6.5476 H         1 <0>         0.1115
     39 H9          3.5178   -0.8214   -8.3175 H         1 <0>         0.1094
     40 H10         3.8389    0.7194   -9.1832 H         1 <0>         0.1070
     41 H11         2.0839    3.7182    0.0014 H         1 <0>         0.1406
     42 H12        -0.0647    4.9201    0.0280 H         1 <0>         0.1350
     43 H13        -2.1804    3.6599    0.0422 H         1 <0>         0.1378
     44 H14         0.0021   -0.0041    0.0020 H         1 <0>         0.1504
     45 H15        -3.0114   -0.4120    2.0356 H         1 <0>         0.4284
     46 H16        -3.2978    2.4355    1.6482 H         1 <0>         0.1157
     47 H17        -2.4065    0.7713    4.0867 H         1 <0>         0.1096
     48 H18        -2.5884    2.5502    4.2577 H         1 <0>         0.1094
     49 H19        -5.2714    2.3488    3.4984 H         1 <0>         0.1098
     50 H20        -5.0895    0.5699    3.3275 H         1 <0>         0.1100
@<TRIPOS>BOND
     1    1    6 ar
     2    1    2 ar
     3    1   31 1
     4    2    3 ar
     5    2   32 1
     6    3    4 ar
     7    3   14 1
     8    4    5 ar
     9    4   33 1
    10    5    6 ar
    11    5    7 1
    12    6   34 1
    13    7    8 2
    14    7    9 2
    15    7   10 1
    16   10   11 1
    17   10   35 1
    18   11   13 1
    19   11   12 1
    20   11   36 1
    21   12   13 1
    22   12   37 1
    23   12   38 1
    24   13   39 1
    25   13   40 1
    26   14   15 1
    27   15   16 2
    28   15   17 2
    29   15   18 1
    30   18   23 ar
    31   18   19 ar
    32   19   20 ar
    33   19   41 1
    34   20   21 ar
    35   20   42 1
    36   21   22 ar
    37   21   43 1
    38   22   23 ar
    39   22   24 1
    40   23   44 1
    41   24   25 2
    42   24   26 2
    43   24   27 1
    44   27   28 1
    45   27   45 1
    46   28   30 1
    47   28   29 1
    48   28   46 1
    49   29   30 1
    50   29   47 1
    51   29   48 1
    52   30   49 1
    53   30   50 1
@<TRIPOS>MOLECULE
ZINC40074984
   62    65     0     0     0
SMALL
USER_CHARGES

@<TRIPOS>ATOM
      1 C1          3.8665   -8.3023   -4.4649 C.ar      1 <0>        -0.1125
      2 C2          3.2753   -7.3117   -3.7033 C.ar      1 <0>        -0.1244
      3 C3          4.0616   -6.4273   -2.9889 C.ar      1 <0>        -0.0954
      4 C4          5.4390   -6.5337   -3.0357 C.ar      1 <0>        -0.0932
      5 C5          6.0302   -7.5249   -3.7966 C.ar      1 <0>        -0.0951
      6 C6          5.2440   -8.4085   -4.5121 C.ar      1 <0>        -0.1240
      7 C7          6.2962   -5.5689   -2.2576 C.3       1 <0>         0.0998
      8 O1          6.5390   -6.0942   -0.9511 O.3       1 <0>        -0.3087
      9 C8          7.3005   -5.3425   -0.1165 C.ar      1 <0>         0.1401
     10 C9          7.7995   -4.1183   -0.5474 C.ar      1 <0>        -0.2251
     11 C10         8.5724   -3.3526    0.2960 C.ar      1 <0>        -0.0343
     12 C11         8.8550   -3.8073    1.5877 C.ar      1 <0>        -0.1727
     13 C12         8.3508   -5.0388    2.0171 C.ar      1 <0>        -0.0237
     14 C13         7.5747   -5.7960    1.1690 C.ar      1 <0>        -0.1667
     15 C14         9.6838   -2.9898    2.4954 C.2       1 <0>         0.5080
     16 O2         10.2107   -1.9717    2.0868 O.2       1 <0>        -0.4789
     17 C15         9.8720   -3.4044    3.8892 C.2       1 <0>        -0.5074
     18 C16        11.0309   -3.8030    4.4632 C.2       1 <0>         0.2664
     19 C17        10.7819   -4.1322    5.8823 C.2       1 <0>         0.5153
     20 O3         11.6249   -4.5207    6.6663 O.2       1 <0>        -0.5180
     21 N1          9.4838   -3.9381    6.1778 N.am      1 <0>        -0.6111
     22 C18         8.8109   -3.4627    4.9632 C.3       1 <0>         0.2645
     23 H1          8.0245   -4.1605    4.6756 H         1 <0>         0.0668
     24 C19         8.2295   -2.0913    5.1921 C.ar      1 <0>        -0.0539
     25 C20         8.9395   -1.1522    5.9176 C.ar      1 <0>        -0.0988
     26 C21         8.4089    0.1067    6.1293 C.ar      1 <0>        -0.1053
     27 C22         7.1671    0.4294    5.6167 C.ar      1 <0>        -0.1542
     28 C23         6.4529   -0.5108    4.8886 C.ar      1 <0>         0.0969
     29 C24         6.9904   -1.7717    4.6723 C.ar      1 <0>        -0.1391
     30 O4          5.2313   -0.1958    4.3833 O.3       1 <0>        -0.5029
     31 C25         8.8545   -4.1565    7.4826 C.3       1 <0>         0.1393
     32 C26         8.3742   -5.6058    7.5811 C.3       1 <0>         0.0440
     33 O5          9.5018   -6.4835    7.5646 O.3       1 <0>        -0.3575
     34 C27         9.1585   -7.8705    7.5424 C.3       1 <0>         0.0624
     35 C28        10.4315   -8.7127    7.6477 C.3       1 <0>         0.0782
     36 O6         11.0401   -8.4987    8.9228 O.3       1 <0>        -0.5649
     37 O7         12.2275   -3.8868    3.8373 O.3       1 <0>        -0.6557
     38 H2          3.2521   -8.9961   -5.0195 H         1 <0>         0.1227
     39 H3          2.1991   -7.2285   -3.6668 H         1 <0>         0.1243
     40 H4          3.5997   -5.6528   -2.3944 H         1 <0>         0.1247
     41 H5          7.1064   -7.6079   -3.8334 H         1 <0>         0.1251
     42 H6          5.7058   -9.1827   -5.1069 H         1 <0>         0.1244
     43 H7          7.2453   -5.4277   -2.7746 H         1 <0>         0.0721
     44 H8          5.7818   -4.6115   -2.1745 H         1 <0>         0.0718
     45 H9          7.5808   -3.7678   -1.5452 H         1 <0>         0.1261
     46 H10         8.9602   -2.4021   -0.0396 H         1 <0>         0.1314
     47 H11         8.5668   -5.3936    3.0140 H         1 <0>         0.1407
     48 H12         7.1815   -6.7454    1.5013 H         1 <0>         0.1299
     49 H13         9.9100   -1.4028    6.3197 H         1 <0>         0.1208
     50 H14         8.9653    0.8384    6.6962 H         1 <0>         0.1219
     51 H15         6.7527    1.4128    5.7829 H         1 <0>         0.1209
     52 H16         6.4383   -2.5039    4.1018 H         1 <0>         0.1242
     53 H17         5.2592    0.1815    3.4934 H         1 <0>         0.3855
     54 H18         9.5789   -3.9594    8.2729 H         1 <0>         0.0859
     55 H19         8.0042   -3.4836    7.5931 H         1 <0>         0.0891
     56 H20         7.8207   -5.7428    8.5100 H         1 <0>         0.0532
     57 H21         7.7255   -5.8318    6.7348 H         1 <0>         0.0494
     58 H22         8.5031   -8.0960    8.3836 H         1 <0>         0.0495
     59 H23         8.6452   -8.1029    6.6094 H         1 <0>         0.0590
     60 H24        10.1795   -9.7674    7.5378 H         1 <0>         0.0551
     61 H25        11.1262   -8.4211    6.8600 H         1 <0>         0.0580
     62 H26        11.8542   -9.0024    9.0595 H         1 <0>         0.3761
@<TRIPOS>BOND
     1    1    6 ar
     2    1    2 ar
     3    1   38 1
     4    2    3 ar
     5    2   39 1
     6    3    4 ar
     7    3   40 1
     8    4    5 ar
     9    4    7 1
    10    5    6 ar
    11    5   41 1
    12    6   42 1
    13    7    8 1
    14    7   43 1
    15    7   44 1
    16    8    9 1
    17    9   14 ar
    18    9   10 ar
    19   10   11 ar
    20   10   45 1
    21   11   12 ar
    22   11   46 1
    23   12   13 ar
    24   12   15 1
    25   13   14 ar
    26   13   47 1
    27   14   48 1
    28   15   16 2
    29   15   17 1
    30   17   22 1
    31   17   18 2
    32   18   19 1
    33   18   37 1
    34   19   20 2
    35   19   21 am
    36   21   22 1
    37   21   31 1
    38   22   23 1
    39   22   24 1
    40   24   29 ar
    41   24   25 ar
    42   25   26 ar
    43   25   49 1
    44   26   27 ar
    45   26   50 1
    46   27   28 ar
    47   27   51 1
    48   28   29 ar
    49   28   30 1
    50   29   52 1
    51   30   53 1
    52   31   32 1
    53   31   54 1
    54   31   55 1
    55   32   33 1
    56   32   56 1
    57   32   57 1
    58   33   34 1
    59   34   35 1
    60   34   58 1
    61   34   59 1
    62   35   36 1
    63   35   60 1
    64   35   61 1
    65   36   62 1
@<TRIPOS>MOLECULE
ZINC45772352
   50    52     0     0     0
SMALL
USER_CHARGES

@<TRIPOS>ATOM
      1 C1          0.0104    1.5201    0.0356 C.3       1 <0>        -0.1488
      2 C2          0.0253   -0.0097    0.0206 C.3       1 <0>         0.0593
      3 O1         -1.3172   -0.4993    0.0351 O.3       1 <0>        -0.3570
      4 C3         -1.4807   -1.8369    0.0245 C.2       1 <0>         0.5192
      5 O2         -0.5099   -2.5676    0.0036 O.2       1 <0>        -0.4604
      6 C4         -2.8361   -2.4132    0.0383 C.2       1 <0>        -0.2215
      7 C5         -4.0256   -1.7114    0.0560 C.2       1 <0>         0.1195
      8 N1         -5.0222   -2.6104    0.0640 N.pl3     1 <0>        -0.4594
      9 N2         -4.4635   -3.8933    0.0512 N.2       1 <0>        -0.1651
     10 H1         -5.9702   -2.4054    0.0767 H         1 <0>         0.4453
     11 C6         -3.1636   -3.7881    0.0297 C.2       1 <0>        -0.3586
     12 S1         -2.0168   -5.1256   -0.0000 S.o2      1 <0>         2.6170
     13 O3         -1.8829   -5.5155   -1.3599 O.2       1 <0>        -1.0156
     14 O4         -0.9060   -4.7258    0.7908 O.2       1 <0>        -0.9808
     15 N3         -2.7266   -6.3967    0.7891 N.2       1 <0>        -1.0263
     16 C7         -2.0453   -7.5997    0.9213 C.ar      1 <0>         0.3324
     17 C8         -0.7657   -7.7388    0.3979 C.ar      1 <0>        -0.2663
     18 C9         -0.0909   -8.9348    0.5306 C.ar      1 <0>        -0.0393
     19 C10        -0.6809  -10.0047    1.1853 C.ar      1 <0>        -0.2369
     20 C11        -1.9484   -9.8858    1.7112 C.ar      1 <0>        -0.0398
     21 C12        -2.6433   -8.6795    1.5895 C.ar      1 <0>        -0.2222
     22 C13        -3.9980   -8.5437    2.1544 C.2       1 <0>         0.5611
     23 O5         -4.6012   -7.4935    2.0423 O.2       1 <0>        -0.4771
     24 N4         -4.5683   -9.5832    2.7952 N.am      1 <0>        -0.6903
     25 C14        -5.8137   -9.4253    3.4158 C.ar      1 <0>         0.1359
     26 C15        -6.0893  -10.0949    4.6007 C.ar      1 <0>        -0.1187
     27 C16        -7.3173   -9.9383    5.2123 C.ar      1 <0>        -0.1339
     28 C17        -8.2759   -9.1127    4.6432 C.ar      1 <0>         0.0933
     29 C18        -8.0013   -8.4434    3.4595 C.ar      1 <0>        -0.1869
     30 C19        -6.7716   -8.5945    2.8497 C.ar      1 <0>        -0.0842
     31 O6         -9.4852   -8.9597    5.2455 O.3       1 <0>        -0.3233
     32 C20       -10.4245   -8.0944    4.6044 C.3       1 <0>         0.0292
     33 H2          1.0344    1.8935    0.0246 H         1 <0>         0.0773
     34 H3         -0.5196    1.8869   -0.8434 H         1 <0>         0.0642
     35 H4         -0.4942    1.8698    0.9363 H         1 <0>         0.0648
     36 H5          0.5298   -0.3594   -0.8800 H         1 <0>         0.0676
     37 H6          0.5552   -0.3765    0.8997 H         1 <0>         0.0697
     38 H7         -4.1339   -0.6368    0.0626 H         1 <0>         0.1992
     39 H8         -0.2990   -6.9100   -0.1136 H         1 <0>         0.1046
     40 H9          0.9032   -9.0383    0.1214 H         1 <0>         0.1072
     41 H10        -0.1440  -10.9367    1.2832 H         1 <0>         0.1073
     42 H11        -2.4032  -10.7227    2.2202 H         1 <0>         0.1064
     43 H12        -4.1161  -10.4408    2.8264 H         1 <0>         0.4014
     44 H13        -5.3434  -10.7383    5.0436 H         1 <0>         0.1292
     45 H14        -7.5318  -10.4590    6.1339 H         1 <0>         0.1279
     46 H15        -8.7482   -7.8010    3.0167 H         1 <0>         0.1252
     47 H16        -6.5564   -8.0699    1.9305 H         1 <0>         0.1473
     48 H17       -10.0042   -7.0913    4.5324 H         1 <0>         0.0534
     49 H18       -10.6409   -8.4703    3.6044 H         1 <0>         0.0529
     50 H19       -11.3450   -8.0617    5.1873 H         1 <0>         0.0946
@<TRIPOS>BOND
     1    1    2 1
     2    1   33 1
     3    1   34 1
     4    1   35 1
     5    2    3 1
     6    2   36 1
     7    2   37 1
     8    3    4 1
     9    4    5 2
    10    4    6 1
    11    6   11 1
    12    6    7 2
    13    7   38 1
    14    7    8 1
    15    8   10 1
    16    8    9 1
    17    9   11 2
    18   11   12 1
    19   12   13 2
    20   12   14 2
    21   12   15 1
    22   15   16 1
    23   16   21 ar
    24   16   17 ar
    25   17   18 ar
    26   17   39 1
    27   18   19 ar
    28   18   40 1
    29   19   20 ar
    30   19   41 1
    31   20   21 ar
    32   20   42 1
    33   21   22 1
    34   22   23 2
    35   22   24 am
    36   24   25 1
    37   24   43 1
    38   25   30 ar
    39   25   26 ar
    40   26   27 ar
    41   26   44 1
    42   27   28 ar
    43   27   45 1
    44   28   29 ar
    45   28   31 1
    46   29   30 ar
    47   29   46 1
    48   30   47 1
    49   31   32 1
    50   32   48 1
    51   32   49 1
    52   32   50 1
@<TRIPOS>MOLECULE
ZINC02774111
   44    45     0     0     0
SMALL
USER_CHARGES
N,N'-bis(3-acetylaminophenyl)oxamide
@<TRIPOS>ATOM
      1 C1          1.4864   -5.0367    3.5979 C.3       1 <0>        -0.1719
      2 C2          1.0327   -4.3754    2.3220 C.2       1 <0>         0.5118
      3 O1          0.2009   -3.4934    2.3586 O.2       1 <0>        -0.5243
      4 N1          1.5512   -4.7641    1.1403 N.am      1 <0>        -0.6741
      5 C3          1.0611   -4.2194   -0.0518 C.ar      1 <0>         0.1592
      6 C4          0.6592   -2.8902   -0.0954 C.ar      1 <0>        -0.1268
      7 C5          0.1756   -2.3511   -1.2721 C.ar      1 <0>        -0.0819
      8 C6          0.0895   -3.1314   -2.4088 C.ar      1 <0>        -0.1479
      9 C7          0.4895   -4.4619   -2.3719 C.ar      1 <0>         0.1506
     10 C8          0.9815   -5.0045   -1.1928 C.ar      1 <0>        -0.1435
     11 N2          0.4022   -5.2507   -3.5219 N.am      1 <0>        -0.6389
     12 C9          0.0830   -6.5563   -3.4210 C.2       1 <0>         0.5114
     13 O2         -0.0460   -7.0667   -2.3272 O.2       1 <0>        -0.4940
     14 C10        -0.1118   -7.3744   -4.6540 C.2       1 <0>         0.5127
     15 O3          0.0172   -6.8640   -5.7478 O.2       1 <0>        -0.4962
     16 N3         -0.4310   -8.6799   -4.5531 N.am      1 <0>        -0.6389
     17 C11        -0.5180   -9.4688   -5.7031 C.ar      1 <0>         0.1519
     18 C12        -0.1063  -10.7958   -5.6693 C.ar      1 <0>        -0.1488
     19 C13        -0.1921  -11.5762   -6.8060 C.ar      1 <0>        -0.0801
     20 C14        -0.6873  -11.0407   -7.9795 C.ar      1 <0>        -0.1277
     21 C15        -1.1011   -9.7150   -8.0200 C.ar      1 <0>         0.1628
     22 C16        -1.0212   -8.9298   -6.8790 C.ar      1 <0>        -0.1436
     23 N4         -1.6023   -9.1738   -9.2090 N.am      1 <0>        -0.6747
     24 C17        -2.3031   -9.9495  -10.0597 C.2       1 <0>         0.5110
     25 O4         -2.5801  -11.0897   -9.7526 O.2       1 <0>        -0.5235
     26 C18        -2.7424   -9.4002  -11.3925 C.3       1 <0>        -0.1722
     27 H1          0.8495   -5.8959    3.8083 H         1 <0>         0.0994
     28 H2          2.5190   -5.3680    3.4882 H         1 <0>         0.0836
     29 H3          1.4189   -4.3244    4.4202 H         1 <0>         0.0988
     30 H4          2.2641   -5.4214    1.1161 H         1 <0>         0.4129
     31 H5          0.7246   -2.2776    0.7917 H         1 <0>         0.1418
     32 H6         -0.1361   -1.3176   -1.3032 H         1 <0>         0.1346
     33 H7         -0.2892   -2.7073   -3.3269 H         1 <0>         0.1311
     34 H8          1.2975   -6.0368   -1.1626 H         1 <0>         0.1427
     35 H9          0.5713   -4.8587   -4.3929 H         1 <0>         0.4253
     36 H10        -0.6003   -9.0719   -3.6821 H         1 <0>         0.4257
     37 H11         0.2816  -11.2172   -4.7537 H         1 <0>         0.1313
     38 H12         0.1288  -12.6070   -6.7773 H         1 <0>         0.1348
     39 H13        -0.7524  -11.6533   -8.8666 H         1 <0>         0.1375
     40 H14        -1.3461   -7.9002   -6.9069 H         1 <0>         0.1420
     41 H15        -1.4455   -8.2403   -9.4209 H         1 <0>         0.4140
     42 H16        -1.9712   -9.5951  -12.1378 H         1 <0>         0.0998
     43 H17        -3.6713   -9.8829  -11.6960 H         1 <0>         0.0987
     44 H18        -2.9023   -8.3253  -11.3076 H         1 <0>         0.0835
@<TRIPOS>BOND
     1    1    2 1
     2    1   27 1
     3    1   28 1
     4    1   29 1
     5    2    3 2
     6    2    4 am
     7    4    5 1
     8    4   30 1
     9    5   10 ar
    10    5    6 ar
    11    6    7 ar
    12    6   31 1
    13    7    8 ar
    14    7   32 1
    15    8    9 ar
    16    8   33 1
    17    9   10 ar
    18    9   11 1
    19   10   34 1
    20   11   12 am
    21   11   35 1
    22   12   13 2
    23   12   14 1
    24   14   15 2
    25   14   16 am
    26   16   17 1
    27   16   36 1
    28   17   22 ar
    29   17   18 ar
    30   18   19 ar
    31   18   37 1
    32   19   20 ar
    33   19   38 1
    34   20   21 ar
    35   20   39 1
    36   21   22 ar
    37   21   23 1
    38   22   40 1
    39   23   24 am
    40   23   41 1
    41   24   25 2
    42   24   26 1
    43   26   42 1
    44   26   43 1
    45   26   44 1
@<TRIPOS>MOLECULE
ZINC30983989
   43    45     0     0     0
SMALL
USER_CHARGES
4-[2-[[2-(1,3,5-trimethylpyrazol-4-yl)acetyl]amino]thiazol-4-yl]-1H-pyrrole-2-carboxamide
@<TRIPOS>ATOM
      1 C1          3.6030    0.7750   -0.0277 C.3       1 <0>        -0.0770
      2 C2          2.0963    0.7484   -0.0139 C.2       1 <0>         0.0943
      3 C3          1.2963   -0.3989   -0.0125 C.2       1 <0>        -0.2328
      4 C4          0.0021   -0.0041    0.0020 C.2       1 <0>         0.1077
      5 N1         -0.0162    1.3453    0.0094 N.pl3     1 <0>        -0.3704
      6 N2          1.3106    1.7945   -0.0008 N.2       1 <0>        -0.2965
      7 C5         -1.2124    2.1909    0.0199 C.3       1 <0>         0.0960
      8 C6         -1.2029   -0.9090    0.0091 C.3       1 <0>        -0.0994
      9 C7          1.7886   -1.8232   -0.0248 C.3       1 <0>        -0.0482
     10 C8          1.9392   -2.2903   -1.4497 C.2       1 <0>         0.5129
     11 O1          1.6729   -1.5405   -2.3650 O.2       1 <0>        -0.4897
     12 N3          2.3698   -3.5413   -1.7068 N.am      1 <0>        -0.6283
     13 C9          2.5086   -3.9720   -3.0206 C.2       1 <0>         0.2986
     14 N4          2.9106   -5.1444   -3.4667 N.2       1 <0>        -0.5430
     15 C10         2.9870   -5.3957   -4.7656 C.2       1 <0>         0.1690
     16 C11         2.6359   -4.4011   -5.6336 C.2       1 <0>        -0.2772
     17 S1          2.1889   -3.1036   -4.4895 S.3       1 <0>         0.1476
     18 C12         3.4414   -6.7195   -5.2629 C.2       1 <0>        -0.1204
     19 C13         3.7392   -7.8472   -4.4750 C.2       1 <0>        -0.0702
     20 C14         4.1147   -8.8478   -5.3274 C.2       1 <0>        -0.0700
     21 N5          4.0613   -8.3546   -6.6115 N.pl3     1 <0>        -0.5486
     22 H1          4.3311   -9.0002   -7.4603 H         1 <0>         0.4428
     23 C15         3.6523   -7.0631   -6.5674 C.2       1 <0>         0.0637
     24 C16         4.5108  -10.2065   -4.9412 C.2       1 <0>         0.5950
     25 O2          4.5184  -10.5276   -3.7674 O.2       1 <0>        -0.5367
     26 N6          4.8663  -11.0992   -5.8863 N.am      1 <0>        -0.8783
     27 H2          3.9878   -0.2554   -0.0370 H         1 <0>         0.0734
     28 H3          3.9688    1.2949    0.8700 H         1 <0>         0.0775
     29 H4          3.9521    1.3049   -0.9262 H         1 <0>         0.0775
     30 H5         -0.9131    3.2494    0.0242 H         1 <0>         0.0970
     31 H6         -1.8067    1.9742    0.9198 H         1 <0>         0.0803
     32 H7         -1.8156    1.9840   -0.8764 H         1 <0>         0.0799
     33 H8         -2.1188   -0.2999    0.0210 H         1 <0>         0.0720
     34 H9         -1.1760   -1.5483    0.9038 H         1 <0>         0.0868
     35 H10        -1.1934   -1.5393   -0.8924 H         1 <0>         0.0848
     36 H11         2.7621   -1.8790    0.4842 H         1 <0>         0.1118
     37 H12         1.0645   -2.4660    0.4972 H         1 <0>         0.1083
     38 H13         2.6113   -4.2213   -0.8766 H         1 <0>         0.4533
     39 H14         2.6270   -4.4006   -6.7135 H         1 <0>         0.1917
     40 H15         3.6795   -7.9110   -3.3985 H         1 <0>         0.1500
     41 H16         3.5162   -6.4149   -7.4205 H         1 <0>         0.1755
     42 H17         5.1633  -12.1180   -5.5966 H         1 <0>         0.4306
     43 H18         4.8594  -10.8090   -6.9473 H         1 <0>         0.4085
@<TRIPOS>BOND
     1    1    2 1
     2    1   27 1
     3    1   28 1
     4    1   29 1
     5    2    6 2
     6    2    3 1
     7    3    4 2
     8    3    9 1
     9    4    5 1
    10    4    8 1
    11    5    6 1
    12    5    7 1
    13    7   30 1
    14    7   31 1
    15    7   32 1
    16    8   33 1
    17    8   34 1
    18    8   35 1
    19    9   10 1
    20    9   36 1
    21    9   37 1
    22   10   11 2
    23   10   12 am
    24   12   13 1
    25   12   38 1
    26   13   17 1
    27   13   14 2
    28   14   15 1
    29   15   16 2
    30   15   18 1
    31   16   17 1
    32   16   39 1
    33   18   23 2
    34   18   19 1
    35   19   20 2
    36   19   40 1
    37   20   21 1
    38   20   24 1
    39   21   22 1
    40   21   23 1
    41   23   41 1
    42   24   25 2
    43   24   26 am
    44   26   42 1
    45   26   43 1
@<TRIPOS>MOLECULE
ZINC45368288
   50    53     0     0     0
SMALL
USER_CHARGES

@<TRIPOS>ATOM
      1 C1         -0.0355    1.2001   -0.3847 C.ar      1 <0>        -0.0471
      2 C2          1.1756    1.8511   -0.5272 C.ar      1 <0>        -0.1164
      3 C3          2.3427    1.1198   -0.6559 C.ar      1 <0>        -0.0167
      4 C4          2.2971   -0.2631   -0.6418 C.ar      1 <0>        -0.0929
      5 C5          1.0857   -0.9128   -0.4993 C.ar      1 <0>        -0.0885
      6 C6         -0.0805   -0.1813   -0.3707 C.ar      1 <0>        -0.0737
      7 C7         -1.4010   -0.8904   -0.2147 C.3       1 <0>         0.1424
      8 H1         -1.2341   -1.8804    0.2096 H         1 <0>         0.0897
      9 C8         -2.0714   -1.0282   -1.5842 C.3       1 <0>         0.0940
     10 H2         -1.4476   -1.6409   -2.2350 H         1 <0>         0.0709
     11 C9         -3.4391   -1.6955   -1.4096 C.3       1 <0>         0.0360
     12 H3         -3.9458   -1.7461   -2.3734 H         1 <0>         0.0692
     13 C10        -4.2783   -0.8666   -0.4324 C.3       1 <0>         0.0550
     14 H4         -5.2329   -1.3636   -0.2596 H         1 <0>         0.0671
     15 C11        -3.5228   -0.7349    0.8926 C.3       1 <0>         0.1048
     16 H5         -4.0960   -0.1101    1.5774 H         1 <0>         0.1161
     17 O1         -2.2474   -0.1356    0.6549 O.3       1 <0>        -0.3357
     18 C12        -3.3280   -2.1217    1.5088 C.3       1 <0>         0.0317
     19 O2         -2.7612   -1.9878    2.8137 O.3       1 <0>        -0.5644
     20 O3         -4.5088    0.4318   -0.9831 O.3       1 <0>        -0.5264
     21 O4         -3.2642   -3.0157   -0.8916 O.3       1 <0>        -0.5511
     22 O5         -2.2409    0.2662   -2.1654 O.3       1 <0>        -0.5221
     23 C13         3.5680   -1.0606   -0.7825 C.3       1 <0>         0.0116
     24 C14         3.9618   -1.1260   -2.2356 C.2       1 <0>         0.0264
     25 N1          4.7310   -0.3105   -2.9217 N.2       1 <0>        -0.2766
     26 N2          4.9771   -0.4909   -4.1480 N.2       1 <0>        -0.2355
     27 C15         4.4389   -1.5401   -4.7600 C.2       1 <0>         0.0561
     28 S1          3.5357   -2.2681   -3.4001 S.3       1 <0>         0.1087
     29 C16         4.5575   -1.9829   -6.1661 C.ar      1 <0>         0.0337
     30 C17         3.8951   -3.1303   -6.6171 C.ar      1 <0>        -0.1500
     31 C18         4.0331   -3.5068   -7.9369 C.ar      1 <0>         0.1074
     32 N3          4.7767   -2.8021   -8.7684 N.ar      1 <0>        -0.4729
     33 C19         5.4177   -1.7147   -8.3845 C.ar      1 <0>         0.1074
     34 C20         5.3306   -1.2629   -7.0841 C.ar      1 <0>        -0.1267
     35 Cl1         3.8640    1.9366   -0.8356 Cl        1 <0>        -0.0479
     36 H6         -0.9463    1.7710   -0.2798 H         1 <0>         0.1431
     37 H7          1.2106    2.9305   -0.5385 H         1 <0>         0.1366
     38 H8          1.0499   -1.9922   -0.4886 H         1 <0>         0.1317
     39 H9         -4.2917   -2.6258    1.5812 H         1 <0>         0.0501
     40 H10        -2.6578   -2.7079    0.8800 H         1 <0>         0.0884
     41 H11        -2.6097   -2.8295    3.2651 H         1 <0>         0.3815
     42 H12        -4.9805    0.4229   -1.8272 H         1 <0>         0.3752
     43 H13        -4.0915   -3.4977   -0.7558 H         1 <0>         0.3856
     44 H14        -2.6607    0.2543   -3.0364 H         1 <0>         0.3725
     45 H15         4.3631   -0.5807   -0.2118 H         1 <0>         0.1197
     46 H16         3.4073   -2.0700   -0.4038 H         1 <0>         0.1091
     47 H17         3.2854   -3.7123   -5.9419 H         1 <0>         0.1396
     48 H18         3.5259   -4.3907   -8.2945 H         1 <0>         0.1660
     49 H19         6.0157   -1.1687   -9.0991 H         1 <0>         0.1673
     50 H20         5.8546   -0.3696   -6.7778 H         1 <0>         0.1497
@<TRIPOS>BOND
     1    1    6 ar
     2    1    2 ar
     3    1   36 1
     4    2    3 ar
     5    2   37 1
     6    3    4 ar
     7    3   35 1
     8    4    5 ar
     9    4   23 1
    10    5    6 ar
    11    5   38 1
    12    6    7 1
    13    7    8 1
    14    7   17 1
    15    7    9 1
    16    9   10 1
    17    9   11 1
    18    9   22 1
    19   11   12 1
    20   11   13 1
    21   11   21 1
    22   13   14 1
    23   13   15 1
    24   13   20 1
    25   15   16 1
    26   15   17 1
    27   15   18 1
    28   18   19 1
    29   18   39 1
    30   18   40 1
    31   19   41 1
    32   20   42 1
    33   21   43 1
    34   22   44 1
    35   23   24 1
    36   23   45 1
    37   23   46 1
    38   24   28 1
    39   24   25 2
    40   25   26 1
    41   26   27 2
    42   27   28 1
    43   27   29 1
    44   29   34 ar
    45   29   30 ar
    46   30   31 ar
    47   30   47 1
    48   31   32 ar
    49   31   48 1
    50   32   33 ar
    51   33   34 ar
    52   33   49 1
    53   34   50 1
@<TRIPOS>MOLECULE
ZINC56604858
   48    50     0     0     0
SMALL
USER_CHARGES

@<TRIPOS>ATOM
      1 C1         -0.0078    1.3878    0.1417 C.ar      1 <0>        -0.1379
      2 C2          1.1586    2.0173    0.5365 C.ar      1 <0>        -0.0961
      3 C3          2.3629    1.3442    0.4754 C.ar      1 <0>        -0.1343
      4 C4          2.4018    0.0338    0.0168 C.ar      1 <0>         0.1793
      5 C5          1.2290   -0.5953   -0.3788 C.ar      1 <0>        -0.1060
      6 C6          0.0276    0.0834   -0.3153 C.ar      1 <0>        -0.0858
      7 C7          1.2668   -2.0169   -0.8775 C.3       1 <0>        -0.1039
      8 C8          1.2077   -2.9622    0.2947 C.2       1 <0>         0.5081
      9 O1          1.1415   -2.5246    1.4239 O.2       1 <0>        -0.5250
     10 N1          1.2286   -4.2939    0.0882 N.am      1 <0>        -0.8578
     11 N2          3.6207   -0.6509   -0.0468 N.am      1 <0>        -0.6774
     12 C9          4.7756    0.0368   -0.1458 C.2       1 <0>         0.7104
     13 O2          4.7625    1.2525   -0.1300 O.2       1 <0>        -0.5650
     14 N3          5.9450   -0.6231   -0.2625 N.am      1 <0>        -0.6226
     15 C10         5.9693   -2.0868   -0.3878 C.3       1 <0>         0.1054
     16 C11         6.7764   -2.4615   -1.6347 C.3       1 <0>        -0.1338
     17 C12         8.1610   -1.8144   -1.5548 C.3       1 <0>        -0.1017
     18 C13         8.0128   -0.2918   -1.5150 C.3       1 <0>        -0.1172
     19 H1          7.4831    0.0456   -2.4059 H         1 <0>         0.1105
     20 C14         7.2193    0.1081   -0.2728 C.3       1 <0>         0.1368
     21 C15         9.3777    0.3455   -1.4698 C.2       1 <0>         0.5172
     22 O3         10.3716   -0.3495   -1.4694 O.2       1 <0>        -0.4606
     23 N4          9.4938    1.6876   -1.4297 N.am      1 <0>        -0.6231
     24 C16        10.7527    2.2754   -1.3880 C.2       1 <0>         0.2694
     25 N5         11.9296    1.6876   -1.3867 N.2       1 <0>        -0.5227
     26 C17        13.0445    2.3932   -1.3436 C.2       1 <0>         0.0616
     27 C18        12.9187    3.7424   -1.3010 C.2       1 <0>        -0.2435
     28 S1         11.1416    3.9119   -1.3342 S.3       1 <0>         0.1115
     29 H2         -0.9490    1.9148    0.1947 H         1 <0>         0.1234
     30 H3          1.1277    3.0364    0.8927 H         1 <0>         0.1256
     31 H4          3.2735    1.8364    0.7835 H         1 <0>         0.1571
     32 H5         -0.8850   -0.4054   -0.6229 H         1 <0>         0.1240
     33 H6          0.4133   -2.1954   -1.5315 H         1 <0>         0.1108
     34 H7          2.1905   -2.1830   -1.4320 H         1 <0>         0.0965
     35 H8          1.2816   -4.6439   -0.8149 H         1 <0>         0.4022
     36 H9          1.1905   -4.9023    0.8427 H         1 <0>         0.4037
     37 H10         3.6344   -1.6204   -0.0196 H         1 <0>         0.4030
     38 H11         6.4380   -2.5213    0.4951 H         1 <0>         0.0794
     39 H12         4.9506   -2.4621   -0.4854 H         1 <0>         0.0752
     40 H13         6.8836   -3.5450   -1.6866 H         1 <0>         0.0873
     41 H14         6.2584   -2.1037   -2.5245 H         1 <0>         0.0721
     42 H15         8.6688   -2.1536   -0.6519 H         1 <0>         0.0780
     43 H16         8.7461   -2.0996   -2.4291 H         1 <0>         0.0810
     44 H17         7.0251    1.1805   -0.2947 H         1 <0>         0.1023
     45 H18         7.7922   -0.1435    0.6197 H         1 <0>         0.0783
     46 H19         8.6988    2.2434   -1.4300 H         1 <0>         0.4276
     47 H20        14.0138    1.9168   -1.3419 H         1 <0>         0.1766
     48 H21        13.6828    4.5046   -1.2617 H         1 <0>         0.2000
@<TRIPOS>BOND
     1    1    6 ar
     2    1    2 ar
     3    1   29 1
     4    2    3 ar
     5    2   30 1
     6    3    4 ar
     7    3   31 1
     8    4    5 ar
     9    4   11 1
    10    5    6 ar
    11    5    7 1
    12    6   32 1
    13    7    8 1
    14    7   33 1
    15    7   34 1
    16    8    9 2
    17    8   10 am
    18   10   35 1
    19   10   36 1
    20   11   12 am
    21   11   37 1
    22   12   13 2
    23   12   14 am
    24   14   20 1
    25   14   15 1
    26   15   16 1
    27   15   38 1
    28   15   39 1
    29   16   17 1
    30   16   40 1
    31   16   41 1
    32   17   18 1
    33   17   42 1
    34   17   43 1
    35   18   19 1
    36   18   20 1
    37   18   21 1
    38   20   44 1
    39   20   45 1
    40   21   22 2
    41   21   23 am
    42   23   24 1
    43   23   46 1
    44   24   28 1
    45   24   25 2
    46   25   26 1
    47   26   27 2
    48   26   47 1
    49   27   28 1
    50   27   48 1
@<TRIPOS>MOLECULE
ZINC66614053
   43    44     0     0     0
SMALL
USER_CHARGES

@<TRIPOS>ATOM
      1 C1         -0.0167    1.3782    0.0096 C.ar      1 <0>        -0.0856
      2 C2          1.1706    2.0858    0.0021 C.ar      1 <0>        -0.1124
      3 C3          2.3780    1.4104   -0.0130 C.ar      1 <0>        -0.0263
      4 C4          2.3961    0.0270   -0.0206 C.ar      1 <0>        -0.1124
      5 C5          1.2082   -0.6795   -0.0130 C.ar      1 <0>        -0.0856
      6 C6          0.0021   -0.0041    0.0020 C.ar      1 <0>        -0.1082
      7 C7         -1.2928   -0.7750    0.0107 C.3       1 <0>         0.1805
      8 N1         -1.7261   -1.0173   -1.3676 N.am      1 <0>        -0.7398
      9 C8         -2.8671   -1.6938   -1.6063 C.2       1 <0>         0.7102
     10 O1         -3.5368   -2.1030   -0.6776 O.2       1 <0>        -0.5863
     11 N2         -3.2656   -1.9168   -2.8743 N.am      1 <0>        -0.7358
     12 C9         -4.5059   -2.6522   -3.1337 C.3       1 <0>         0.1320
     13 C10        -4.7219   -2.7640   -4.6209 C.2       1 <0>         0.5128
     14 O2         -3.9189   -2.2774   -5.3886 O.2       1 <0>        -0.5353
     15 N3         -5.8074   -3.4048   -5.0979 N.am      1 <0>        -0.5149
     16 N4         -6.0082   -3.5088   -6.4805 N.am      1 <0>        -0.5212
     17 C11        -7.0937   -4.1496   -6.9575 C.2       1 <0>         0.5140
     18 O3         -7.8967   -4.6362   -6.1898 O.2       1 <0>        -0.5117
     19 C12        -7.3097   -4.2614   -8.4448 C.3       1 <0>         0.0772
     20 H1         -7.3077   -3.2721   -8.9022 H         1 <0>         0.1072
     21 C13        -6.2127   -5.1508   -9.0822 C.3       1 <0>        -0.1496
     22 C14        -6.9423   -5.6489  -10.3595 C.3       1 <0>        -0.1537
     23 C15        -8.4034   -5.7700   -9.8760 C.3       1 <0>         0.0467
     24 O4         -8.5483   -4.9352   -8.7194 O.3       1 <0>        -0.3513
     25 Cl1         3.8696    2.2984   -0.0231 Cl        1 <0>        -0.0649
     26 H2         -0.9592    1.9053    0.0259 H         1 <0>         0.1355
     27 H3          1.1558    3.1656    0.0076 H         1 <0>         0.1367
     28 H4          3.3383   -0.5007   -0.0327 H         1 <0>         0.1367
     29 H5          1.2222   -1.7594   -0.0193 H         1 <0>         0.1354
     30 H6         -1.1447   -1.7283    0.5180 H         1 <0>         0.0801
     31 H7         -2.0551   -0.1989    0.5352 H         1 <0>         0.0801
     32 H8         -1.1917   -0.6909   -2.1085 H         1 <0>         0.4000
     33 H9         -2.7313   -1.5904   -3.6151 H         1 <0>         0.4093
     34 H10        -4.4340   -3.6500   -2.7009 H         1 <0>         0.1079
     35 H11        -5.3444   -2.1206   -2.6837 H         1 <0>         0.1081
     36 H12        -6.4496   -3.7940   -4.4839 H         1 <0>         0.4374
     37 H13        -5.3660   -3.1196   -7.0945 H         1 <0>         0.4333
     38 H14        -5.3303   -4.5640   -9.3373 H         1 <0>         0.0968
     39 H15        -5.9529   -5.9834   -8.4283 H         1 <0>         0.0871
     40 H16        -6.8591   -4.9179  -11.1637 H         1 <0>         0.0847
     41 H17        -6.5560   -6.6185  -10.6737 H         1 <0>         0.0905
     42 H18        -9.0815   -5.4336  -10.6604 H         1 <0>         0.0784
     43 H19        -8.6221   -6.8056   -9.6156 H         1 <0>         0.0764
@<TRIPOS>BOND
     1    1    6 ar
     2    1    2 ar
     3    1   26 1
     4    2    3 ar
     5    2   27 1
     6    3    4 ar
     7    3   25 1
     8    4    5 ar
     9    4   28 1
    10    5    6 ar
    11    5   29 1
    12    6    7 1
    13    7    8 1
    14    7   30 1
    15    7   31 1
    16    8    9 am
    17    8   32 1
    18    9   10 2
    19    9   11 am
    20   11   12 1
    21   11   33 1
    22   12   13 1
    23   12   34 1
    24   12   35 1
    25   13   14 2
    26   13   15 am
    27   15   16 1
    28   15   36 1
    29   16   17 am
    30   16   37 1
    31   17   18 2
    32   17   19 1
    33   19   20 1
    34   19   24 1
    35   19   21 1
    36   21   22 1
    37   21   38 1
    38   21   39 1
    39   22   23 1
    40   22   40 1
    41   22   41 1
    42   23   24 1
    43   23   42 1
    44   23   43 1
@<TRIPOS>MOLECULE
ZINC04556682
   45    45     0     0     0
SMALL
USER_CHARGES
2,3,5,6-tetrahydroxy-4-[3,4,5-trihydroxy-6-(hydroxymethyl)tetrahydropyran-2-yl]oxy-hexanoic acid
@<TRIPOS>ATOM
      1 C1          0.4066   -1.1585    0.0438 C.3       1 <0>         0.0921
      2 C2          0.8227   -0.5118   -1.2788 C.3       1 <0>         0.1145
      3 H1          1.0366   -1.2893   -2.0122 H         1 <0>         0.0756
      4 C3          2.0750    0.3408   -1.0586 C.3       1 <0>         0.0931
      5 H2          1.8740    1.0930   -0.2958 H         1 <0>         0.0825
      6 C4          2.4502    1.0321   -2.3730 C.3       1 <0>         0.0832
      7 H3          2.6994    0.2805   -3.1221 H         1 <0>         0.0832
      8 C5          1.2587    1.8637   -2.8580 C.3       1 <0>         0.0658
      9 H4          1.4974    2.3150   -3.8210 H         1 <0>         0.0833
     10 C6          0.0379    0.9522   -3.0087 C.3       1 <0>         0.2285
     11 H5          0.2416    0.1939   -3.7647 H         1 <0>         0.0881
     12 O1         -0.2379    0.3170   -1.7587 O.3       1 <0>        -0.3838
     13 O2         -1.0920    1.7310   -3.4074 O.3       1 <0>        -0.3471
     14 C7         -2.2400    0.9542   -3.7546 C.3       1 <0>         0.0372
     15 H6         -2.1060   -0.0690   -3.4037 H         1 <0>         0.0798
     16 C8         -3.4828    1.5597   -3.0990 C.3       1 <0>         0.1189
     17 H7         -4.3410    0.9127   -3.2804 H         1 <0>         0.1161
     18 C9         -3.2521    1.6902   -1.5921 C.3       1 <0>         0.0511
     19 O3         -4.4512    2.1489   -0.9646 O.3       1 <0>        -0.5677
     20 O4         -3.7338    2.8514   -3.6561 O.3       1 <0>        -0.5415
     21 C10        -2.4145    0.9534   -5.2746 C.3       1 <0>         0.0923
     22 H8         -2.4584    1.9809   -5.6359 H         1 <0>         0.1028
     23 C11        -1.2298    0.2348   -5.9236 C.3       1 <0>         0.0306
     24 H9         -1.1279   -0.7608   -5.4918 H         1 <0>         0.0912
     25 C12        -1.4652    0.1172   -7.4074 C.2       1 <0>         0.4438
     26 O5         -0.7401    0.6955   -8.1818 O.co2     1 <0>        -0.6355
     27 O6         -0.0336    0.9806   -5.6887 O.3       1 <0>        -0.5551
     28 O7         -3.6263    0.2767   -5.6146 O.3       1 <0>        -0.5179
     29 O8          0.9744    2.8911   -1.9064 O.3       1 <0>        -0.5465
     30 O9          3.5747    1.8876   -2.1592 O.3       1 <0>        -0.5530
     31 O10         3.1533   -0.4953   -0.6340 O.3       1 <0>        -0.5591
     32 O11        -0.6912   -2.0446   -0.1837 O.3       1 <0>        -0.5649
     33 H10         1.2466   -1.7188    0.4544 H         1 <0>         0.0725
     34 H11         0.1075   -0.3832    0.7492 H         1 <0>         0.0536
     35 H12        -2.9756    0.7191   -1.1814 H         1 <0>         0.0559
     36 H13        -2.4495    2.4044   -1.4079 H         1 <0>         0.0540
     37 H14        -4.3779    2.2548   -0.0062 H         1 <0>         0.3735
     38 H15        -3.0103    3.4808   -3.5317 H         1 <0>         0.3707
     39 H16        -0.0534    1.8787   -6.0465 H         1 <0>         0.3741
     40 H17        -3.6572   -0.6448   -5.3234 H         1 <0>         0.3690
     41 H18         0.2295    3.4575   -2.1498 H         1 <0>         0.3838
     42 H19         3.8670    2.3583   -2.9516 H         1 <0>         0.3862
     43 H20         3.9804   -0.0201   -0.4753 H         1 <0>         0.3899
     44 H21        -1.0082   -2.4909    0.6134 H         1 <0>         0.3802
     45 O12        -2.4804   -0.6300   -7.8687 O.co2     1 <0>        -0.7450
@<TRIPOS>BOND
     1    1    2 1
     2    1   32 1
     3    1   33 1
     4    1   34 1
     5    2    3 1
     6    2   12 1
     7    2    4 1
     8    4    5 1
     9    4    6 1
    10    4   31 1
    11    6    7 1
    12    6    8 1
    13    6   30 1
    14    8    9 1
    15    8   10 1
    16    8   29 1
    17   10   11 1
    18   10   12 1
    19   10   13 1
    20   13   14 1
    21   14   15 1
    22   14   16 1
    23   14   21 1
    24   16   17 1
    25   16   18 1
    26   16   20 1
    27   18   19 1
    28   18   35 1
    29   18   36 1
    30   19   37 1
    31   20   38 1
    32   21   22 1
    33   21   23 1
    34   21   28 1
    35   23   24 1
    36   23   25 1
    37   23   27 1
    38   25   26 2
    39   25   45 1
    40   27   39 1
    41   28   40 1
    42   29   41 1
    43   30   42 1
    44   31   43 1
    45   32   44 1
@<TRIPOS>MOLECULE
ZINC21326786
   39    40     0     0     0
SMALL
USER_CHARGES
2-[[4-amino-5-[(N'E)-N'-[(4-hydroxy-3-methoxy-5-nitro-phenyl)methylene]hydrazino]-1,2,4-triazol-3-yl]sulfanyl]acetamide
@<TRIPOS>ATOM
      1 C1         -0.0254   -2.7027   -0.0131 C.3       1 <0>         0.0253
      2 O1          1.2347   -2.0288   -0.0211 O.3       1 <0>        -0.2972
      3 C2          1.2078   -0.6696   -0.0131 C.ar      1 <0>         0.0147
      4 C3          0.0021   -0.0041    0.0020 C.ar      1 <0>        -0.1198
      5 C4         -0.0170    1.4025    0.0098 C.ar      1 <0>        -0.1607
      6 C5          1.1959    2.1177    0.0020 C.ar      1 <0>         0.0249
      7 C6          2.3837    1.4481   -0.0125 C.ar      1 <0>        -0.1388
      8 C7          2.4059    0.0551   -0.0206 C.ar      1 <0>         0.3226
      9 O2          3.5919   -0.6012   -0.0355 O.3       1 <0>        -0.5850
     10 N1          3.6557    2.2049   -0.0205 N.pl3     1 <0>         0.0308
     11 O3          3.6385    3.5217   -0.0129 O.2       1 <0>        -0.2831
     12 O4          4.8047    1.5614   -0.0354 O.3       1 <0>        -0.1940
     13 C8         -1.2517    2.0968    0.0194 C.2       1 <0>         0.1121
     14 N2         -1.2667    3.4145    0.0266 N.2       1 <0>        -0.2466
     15 N3         -2.3911    4.0468    0.0354 N.pl3     1 <0>        -0.4902
     16 C9         -2.4063    5.3851    0.0427 C.2       1 <0>         0.4311
     17 N4         -1.3328    6.1941    0.0479 N.2       1 <0>        -0.2682
     18 N5         -1.7177    7.4211    0.0513 N.2       1 <0>        -0.2611
     19 C10        -3.0628    7.4735    0.0577 C.2       1 <0>         0.0618
     20 N6         -3.5215    6.1865    0.0523 N.pl3     1 <0>        -0.2316
     21 N7         -4.8254    5.7793    0.0552 N.3       1 <0>        -0.7675
     22 S1         -4.0220    8.8915    0.0710 S.3       1 <0>         0.0870
     23 C11        -2.7217   10.1506    0.0719 C.3       1 <0>        -0.1474
     24 C12        -3.3492   11.5207    0.0832 C.2       1 <0>         0.5398
     25 O5         -4.5566   11.6347    0.0900 O.2       1 <0>        -0.5409
     26 N8         -2.5685   12.6193    0.0858 N.am      1 <0>        -0.8704
     27 H1          0.1403   -3.7901   -0.0209 H         1 <0>         0.0924
     28 H2         -0.6017   -2.4132   -0.9042 H         1 <0>         0.0477
     29 H3         -0.5848   -2.4235    0.8920 H         1 <0>         0.0477
     30 H4         -0.9242   -0.5594    0.0082 H         1 <0>         0.1237
     31 H5          1.1854    3.1977    0.0079 H         1 <0>         0.1448
     32 H6         -2.1980    1.5360    0.0208 H         1 <0>         0.1082
     33 H7         -3.3374    3.4860    0.0369 H         1 <0>         0.3869
     34 H8         -5.6343    6.5246    0.0632 H         1 <0>         0.4497
     35 H9         -5.0664    4.7060    0.0496 H         1 <0>         0.4396
     36 H10        -2.0931   10.0278    0.9662 H         1 <0>         0.1285
     37 H11        -2.1021   10.0385   -0.8300 H         1 <0>         0.1285
     38 H12        -3.0264   13.6194    0.0940 H         1 <0>         0.4275
     39 H13        -1.4734   12.5158    0.0797 H         1 <0>         0.4272
@<TRIPOS>BOND
     1    1    2 1
     2    1   27 1
     3    1   28 1
     4    1   29 1
     5    2    3 1
     6    3    8 ar
     7    3    4 ar
     8    4    5 ar
     9    4   30 1
    10    5    6 ar
    11    5   13 1
    12    6    7 ar
    13    6   31 1
    14    7    8 ar
    15    7   10 1
    16    8    9 1
    17   10   11 2
    18   10   12 1
    19   13   14 2
    20   13   32 1
    21   14   15 1
    22   15   16 1
    23   15   33 1
    24   16   20 1
    25   16   17 2
    26   17   18 1
    27   18   19 2
    28   19   20 1
    29   19   22 1
    30   20   21 1
    31   21   34 1
    32   21   35 1
    33   22   23 1
    34   23   24 1
    35   23   36 1
    36   23   37 1
    37   24   25 2
    38   24   26 am
    39   26   38 1
    40   26   39 1
@<TRIPOS>MOLECULE
ZINC35454685
   54    55     0     0     0
SMALL
USER_CHARGES

@<TRIPOS>ATOM
      1 C1          0.5901   -0.7154    1.2223 C.3       1 <0>        -0.1416
      2 C2          0.0010   -0.0055    0.0017 C.3       1 <0>         0.1697
      3 C3         -1.4619   -0.4186   -0.1717 C.3       1 <0>        -0.2234
      4 C4         -2.2421   -0.0333    1.0587 C.2       1 <0>         0.4979
      5 O1         -1.6801    0.5205    1.9882 O.co2     1 <0>        -0.6768
      6 O2         -3.4352   -0.2753    1.1246 O.co2     1 <0>        -0.7126
      7 C5          0.7930   -0.3967   -1.2475 C.3       1 <0>        -0.1443
      8 C6          0.2112    0.3008   -2.4500 C.2       1 <0>         0.4659
      9 O3         -0.6794    1.1051   -2.3097 O.2       1 <0>        -0.4938
     10 O4          0.6825    0.0285   -3.6770 O.3       1 <0>        -0.3520
     11 C7          0.0847    0.7265   -4.7712 C.3       1 <0>         0.0770
     12 C8          0.7472    0.2882   -6.0788 C.3       1 <0>         0.1164
     13 H1          1.8250    0.4343   -6.0070 H         1 <0>         0.0837
     14 C9          0.1947    1.1240   -7.2363 C.3       1 <0>         0.0916
     15 H2          0.4452    2.1733   -7.0800 H         1 <0>         0.0754
     16 C10         0.8177    0.6391   -8.5490 C.3       1 <0>         0.0796
     17 H3          1.8957    0.7986   -8.5218 H         1 <0>         0.0786
     18 C11         0.5250   -0.8548   -8.7191 C.3       1 <0>         0.0662
     19 H4          1.0117   -1.2207   -9.6231 H         1 <0>         0.0676
     20 C12         1.0648   -1.6142   -7.5043 C.3       1 <0>         0.2255
     21 H5          2.1467   -1.4931   -7.4512 H         1 <0>         0.0581
     22 O5          0.4683   -1.0933   -6.3147 O.3       1 <0>        -0.3693
     23 O6          0.7460   -3.0016   -7.6294 O.3       1 <0>        -0.3583
     24 C13         1.3036   -3.8211   -6.6001 C.3       1 <0>         0.1042
     25 C14         0.9059   -5.2564   -6.8300 C.ar      1 <0>        -0.0924
     26 C15        -0.2616   -5.7473   -6.2761 C.ar      1 <0>        -0.0925
     27 C16        -0.6264   -7.0639   -6.4871 C.ar      1 <0>        -0.1220
     28 C17         0.1761   -7.8894   -7.2523 C.ar      1 <0>        -0.1134
     29 C18         1.3431   -7.3981   -7.8069 C.ar      1 <0>        -0.1263
     30 C19         1.7057   -6.0804   -7.5995 C.ar      1 <0>        -0.1006
     31 O7         -0.8861   -1.0563   -8.8214 O.3       1 <0>        -0.5220
     32 O8          0.2544    1.3660   -9.6427 O.3       1 <0>        -0.5469
     33 O9         -1.2253    0.9760   -7.2970 O.3       1 <0>        -0.5250
     34 O10         0.0773    1.4089    0.1906 O.3       1 <0>        -0.5415
     35 H6          0.4137   -1.7878    1.1391 H         1 <0>         0.0524
     36 H7          1.6625   -0.5263    1.2701 H         1 <0>         0.0415
     37 H8          0.1139   -0.3380    2.1272 H         1 <0>         0.1100
     38 H9         -1.8817    0.0872   -1.0413 H         1 <0>         0.0762
     39 H10        -1.5202   -1.4975   -0.3158 H         1 <0>         0.0564
     40 H11         1.8348   -0.1009   -1.1245 H         1 <0>         0.1075
     41 H12         0.7362   -1.4758   -1.3905 H         1 <0>         0.1076
     42 H13        -0.9805    0.4983   -4.8093 H         1 <0>         0.0916
     43 H14         0.2218    1.7994   -4.6363 H         1 <0>         0.0854
     44 H15         2.3903   -3.7378   -6.6180 H         1 <0>         0.0590
     45 H16         0.9299   -3.4914   -5.6307 H         1 <0>         0.0758
     46 H17        -0.8885   -5.1024   -5.6783 H         1 <0>         0.1271
     47 H18        -1.5382   -7.4476   -6.0537 H         1 <0>         0.1253
     48 H19        -0.1086   -8.9181   -7.4165 H         1 <0>         0.1223
     49 H20         1.9702   -8.0432   -8.4045 H         1 <0>         0.1224
     50 H21         2.6156   -5.6956   -8.0359 H         1 <0>         0.1209
     51 H22        -1.1443   -1.9816   -8.9312 H         1 <0>         0.3809
     52 H23         0.6043    1.1097  -10.5071 H         1 <0>         0.3843
     53 H24        -1.6432    1.4794   -8.0091 H         1 <0>         0.3840
     54 H25        -0.2792    1.9239   -0.5462 H         1 <0>         0.3668
@<TRIPOS>BOND
     1    1    2 1
     2    1   35 1
     3    1   36 1
     4    1   37 1
     5    2    3 1
     6    2    7 1
     7    2   34 1
     8    3    4 1
     9    3   38 1
    10    3   39 1
    11    4    5 2
    12    4    6 1
    13    7    8 1
    14    7   40 1
    15    7   41 1
    16    8    9 2
    17    8   10 1
    18   10   11 1
    19   11   12 1
    20   11   42 1
    21   11   43 1
    22   12   13 1
    23   12   22 1
    24   12   14 1
    25   14   15 1
    26   14   16 1
    27   14   33 1
    28   16   17 1
    29   16   18 1
    30   16   32 1
    31   18   19 1
    32   18   20 1
    33   18   31 1
    34   20   21 1
    35   20   22 1
    36   20   23 1
    37   23   24 1
    38   24   25 1
    39   24   44 1
    40   24   45 1
    41   25   30 ar
    42   25   26 ar
    43   26   27 ar
    44   26   46 1
    45   27   28 ar
    46   27   47 1
    47   28   29 ar
    48   28   48 1
    49   29   30 ar
    50   29   49 1
    51   30   50 1
    52   31   51 1
    53   32   52 1
    54   33   53 1
    55   34   54 1
@<TRIPOS>MOLECULE
ZINC43537133
   64    66     0     0     0
SMALL
USER_CHARGES

@<TRIPOS>ATOM
      1 C1          3.4225    0.6657   -0.5247 C.3       1 <0>        -0.1293
      2 C2          3.1551   -0.0682    0.8129 C.3       1 <0>        -0.1267
      3 C3          2.1662   -1.1858    0.3978 C.3       1 <0>        -0.1045
      4 C4          1.2559   -0.5149   -0.6515 C.3       1 <0>        -0.0125
      5 C5          2.0547    0.6623   -1.2381 C.3       1 <0>        -0.0913
      6 C6          0.9060   -1.5132   -1.7569 C.3       1 <0>        -0.1297
      7 C7          0.3066   -2.7523   -1.1433 C.2       1 <0>         0.5195
      8 O1          0.0950   -2.7965    0.0501 O.2       1 <0>        -0.5060
      9 N1          0.0057   -3.8113   -1.9207 N.am      1 <0>        -0.7345
     10 C8         -0.5770   -5.0158   -1.3242 C.3       1 <0>         0.1583
     11 H1         -1.2384   -4.7324   -0.5055 H         1 <0>         0.0976
     12 C9         -1.3758   -5.7752   -2.3854 C.3       1 <0>        -0.1146
     13 C10        -1.9843   -7.0332   -1.7625 C.3       1 <0>         0.1340
     14 C11        -0.8658   -7.9297   -1.2276 C.3       1 <0>        -0.1602
     15 C12        -0.0671   -7.1703   -0.1664 C.3       1 <0>         0.0514
     16 H2         -0.7284   -6.8868    0.6524 H         1 <0>         0.1174
     17 C13         0.5415   -5.9123   -0.7893 C.3       1 <0>         0.1092
     18 H3          1.2028   -6.1958   -1.6081 H         1 <0>         0.0527
     19 O2          1.2875   -5.2031    0.2018 O.3       1 <0>        -0.5312
     20 O3          0.9776   -8.0076    0.3332 O.3       1 <0>        -0.5687
     21 C14        -2.8987   -6.6413   -0.6305 C.2       1 <0>         0.4974
     22 O4         -2.5114   -6.7182    0.5163 O.2       1 <0>        -0.5024
     23 N2         -4.1468   -6.2053   -0.8924 N.am      1 <0>        -0.7051
     24 C15        -5.0357   -5.8243    0.2080 C.3       1 <0>         0.1337
     25 H4         -4.4499   -5.3643    1.0039 H         1 <0>         0.1231
     26 C16        -6.0755   -4.8233   -0.3016 C.3       1 <0>        -0.1335
     27 C17        -7.1514   -4.6505    0.7773 C.3       1 <0>        -0.1356
     28 C18        -7.9301   -5.9603    0.9065 C.3       1 <0>         0.1073
     29 N3         -7.0155   -7.0837    1.0674 N.am      1 <0>        -0.7197
     30 C19        -5.7247   -7.0483    0.7394 C.2       1 <0>         0.5066
     31 O5         -5.0707   -8.0601    0.8789 O.2       1 <0>        -0.5370
     32 O6         -2.7304   -7.7425   -2.7536 O.3       1 <0>        -0.5439
     33 C20        -0.0218   -0.0009    0.0150 C.3       1 <0>        -0.1759
     34 C21        -0.8371    0.7712   -0.9902 C.2       1 <0>         0.4913
     35 O7         -0.4368    0.8929   -2.1354 O.co2     1 <0>        -0.6957
     36 O8         -1.8969    1.2742   -0.6582 O.co2     1 <0>        -0.7127
     37 H5          3.7537    1.6875   -0.3395 H         1 <0>         0.0534
     38 H6          4.1621    0.1250   -1.1152 H         1 <0>         0.0540
     39 H7          4.0760   -0.4952    1.2100 H         1 <0>         0.0525
     40 H8          2.6960    0.6043    1.5374 H         1 <0>         0.0602
     41 H9          2.7029   -2.0254   -0.0438 H         1 <0>         0.0509
     42 H10         1.5806   -1.5151    1.2561 H         1 <0>         0.0713
     43 H11         1.5321    1.5998   -1.0479 H         1 <0>         0.0674
     44 H12         2.1930    0.5223   -2.3101 H         1 <0>         0.0593
     45 H13         0.1867   -1.0616   -2.4400 H         1 <0>         0.1221
     46 H14         1.8097   -1.7799   -2.3050 H         1 <0>         0.0721
     47 H15         0.1749   -3.7760   -2.8752 H         1 <0>         0.3955
     48 H16        -2.1727   -5.1366   -2.7665 H         1 <0>         0.0927
     49 H17        -0.7145   -6.0587   -3.2042 H         1 <0>         0.0940
     50 H18        -1.2994   -8.8259   -0.7838 H         1 <0>         0.0763
     51 H19        -0.2045   -8.2132   -2.0464 H         1 <0>         0.0868
     52 H20         2.0148   -5.7119    0.5856 H         1 <0>         0.3738
     53 H21         0.6641   -8.8255    0.7430 H         1 <0>         0.3795
     54 H22        -4.4565   -6.1438   -1.8096 H         1 <0>         0.4085
     55 H23        -5.5961   -3.8644   -0.4986 H         1 <0>         0.0929
     56 H24        -6.5310   -5.2013   -1.2169 H         1 <0>         0.0782
     57 H25        -6.6789   -4.4105    1.7298 H         1 <0>         0.0793
     58 H26        -7.8309   -3.8478    0.4910 H         1 <0>         0.0954
     59 H27        -8.5880   -5.9043    1.7737 H         1 <0>         0.0795
     60 H28        -8.5321   -6.1113    0.0105 H         1 <0>         0.0679
     61 H29        -7.3691   -7.9086    1.4355 H         1 <0>         0.3989
     62 H30        -3.1454   -8.5531   -2.4283 H         1 <0>         0.3857
     63 H31        -0.6043   -0.8453    0.3835 H         1 <0>         0.0734
     64 H32         0.2401    0.6512    0.8482 H         1 <0>         0.0498
@<TRIPOS>BOND
     1    1    5 1
     2    1    2 1
     3    1   37 1
     4    1   38 1
     5    2    3 1
     6    2   39 1
     7    2   40 1
     8    3    4 1
     9    3   41 1
    10    3   42 1
    11    4    5 1
    12    4    6 1
    13    4   33 1
    14    5   43 1
    15    5   44 1
    16    6    7 1
    17    6   45 1
    18    6   46 1
    19    7    8 2
    20    7    9 am
    21    9   10 1
    22    9   47 1
    23   10   11 1
    24   10   17 1
    25   10   12 1
    26   12   13 1
    27   12   48 1
    28   12   49 1
    29   13   14 1
    30   13   21 1
    31   13   32 1
    32   14   15 1
    33   14   50 1
    34   14   51 1
    35   15   16 1
    36   15   17 1
    37   15   20 1
    38   17   18 1
    39   17   19 1
    40   19   52 1
    41   20   53 1
    42   21   22 2
    43   21   23 am
    44   23   24 1
    45   23   54 1
    46   24   25 1
    47   24   30 1
    48   24   26 1
    49   26   27 1
    50   26   55 1
    51   26   56 1
    52   27   28 1
    53   27   57 1
    54   27   58 1
    55   28   29 1
    56   28   59 1
    57   28   60 1
    58   29   30 am
    59   29   61 1
    60   30   31 2
    61   32   62 1
    62   33   34 1
    63   33   63 1
    64   33   64 1
    65   34   35 2
    66   34   36 1
@<TRIPOS>MOLECULE
ZINC15275995
   54    57     0     0     0
SMALL
USER_CHARGES

@<TRIPOS>ATOM
      1 C1         -0.2682    1.0956    0.4052 C.ar      1 <0>        -0.1118
      2 C2          0.8764    1.8699    0.3700 C.ar      1 <0>        -0.1271
      3 C3          2.1164    1.2664    0.2743 C.ar      1 <0>        -0.0967
      4 C4          2.2118   -0.1113    0.2142 C.ar      1 <0>        -0.1165
      5 C5          1.0672   -0.8856    0.2503 C.ar      1 <0>        -0.0931
      6 C6         -0.1728   -0.2821    0.3446 C.ar      1 <0>        -0.1229
      7 C7          3.5636   -0.7692    0.1088 C.3       1 <0>         0.1387
      8 N1          4.0825   -1.0368    1.4524 N.am      1 <0>        -0.5584
      9 C8          4.8272   -0.1551    2.1294 C.2       1 <0>         0.5491
     10 O1          5.1549    0.9405    1.7270 O.2       1 <0>        -0.4729
     11 C9          5.1961   -0.7383    3.4750 C.3       1 <0>        -0.1441
     12 H1          4.8626   -0.1186    4.3074 H         1 <0>         0.1578
     13 C10         6.7138   -1.0136    3.5101 C.3       1 <0>         0.0987
     14 H2          7.1275   -0.9895    2.5019 H         1 <0>         0.1567
     15 N2          6.8367   -2.3765    4.0874 N.4       1 <0>        -0.4885
     16 C11         5.7184   -3.1354    3.4716 C.3       1 <0>        -0.0035
     17 C12         4.5221   -2.1366    3.4567 C.3       1 <0>        -0.1107
     18 H3          3.8296   -2.2835    4.2855 H         1 <0>         0.1569
     19 C13         3.8456   -2.1807    2.1050 C.2       1 <0>         0.5402
     20 O2          3.1929   -3.1087    1.6781 O.2       1 <0>        -0.4186
     21 C14         6.0834   -3.5612    2.0481 C.3       1 <0>        -0.0994
     22 C15         7.3066   -4.4794    2.0882 C.3       1 <0>        -0.1877
     23 C16         7.6661   -4.8988    0.6861 C.2       1 <0>         0.4967
     24 O3          7.0053   -4.5003   -0.2578 O.co2     1 <0>        -0.6921
     25 O4          8.6179   -5.6366    0.4956 O.co2     1 <0>        -0.6958
     26 C17         5.3771   -4.3402    4.3100 C.2       1 <0>         0.5127
     27 O5          6.0156   -4.5804    5.3205 O.co2     1 <0>        -0.6738
     28 O6          4.4624   -5.0747    3.9779 O.co2     1 <0>        -0.6131
     29 C18         7.4103   -0.0048    4.3865 C.ar      1 <0>        -0.1604
     30 C19         7.5911   -0.2666    5.7314 C.ar      1 <0>        -0.0844
     31 C20         8.2292    0.6562    6.5375 C.ar      1 <0>        -0.1427
     32 C21         8.6903    1.8491    5.9981 C.ar      1 <0>         0.1454
     33 C22         8.5102    2.1141    4.6495 C.ar      1 <0>        -0.1724
     34 C23         7.8745    1.1838    3.8415 C.ar      1 <0>         0.1720
     35 O7          7.7017    1.4381    2.5177 O.3       1 <0>        -0.4892
     36 O8          9.3176    2.7566    6.7916 O.3       1 <0>        -0.4953
     37 H4         -1.2367    1.5669    0.4845 H         1 <0>         0.1215
     38 H5          0.8019    2.9463    0.4170 H         1 <0>         0.1221
     39 H6          3.0107    1.8714    0.2461 H         1 <0>         0.1267
     40 H7          1.1418   -1.9620    0.2029 H         1 <0>         0.1311
     41 H8         -1.0671   -0.8871    0.3724 H         1 <0>         0.1245
     42 H9          3.4694   -1.7074   -0.4379 H         1 <0>         0.1129
     43 H10         4.2493   -0.1075   -0.4204 H         1 <0>         0.1080
     44 H11         7.7231   -2.7877    3.8359 H         1 <0>         0.4332
     45 H12         5.2438   -4.0939    1.6016 H         1 <0>         0.1207
     46 H13         6.3116   -2.6778    1.4518 H         1 <0>         0.0642
     47 H14         8.1463   -3.9467    2.5346 H         1 <0>         0.0435
     48 H15         7.0784   -5.3628    2.6845 H         1 <0>         0.0816
     49 H16         7.2327   -1.1941    6.1530 H         1 <0>         0.1356
     50 H17         8.3691    0.4494    7.5882 H         1 <0>         0.1433
     51 H18         8.8683    3.0417    4.2280 H         1 <0>         0.1448
     52 H19         6.9203    1.9719    2.3185 H         1 <0>         0.4078
     53 H20        10.2759    2.6384    6.8430 H         1 <0>         0.3994
     54 H21         6.7320   -2.3456    5.0905 H         1 <0>         0.4253
@<TRIPOS>BOND
     1    1    6 ar
     2    1    2 ar
     3    1   37 1
     4    2    3 ar
     5    2   38 1
     6    3    4 ar
     7    3   39 1
     8    4    5 ar
     9    4    7 1
    10    5    6 ar
    11    5   40 1
    12    6   41 1
    13    7    8 1
    14    7   42 1
    15    7   43 1
    16    8   19 am
    17    8    9 am
    18    9   10 2
    19    9   11 1
    20   11   12 1
    21   11   17 1
    22   11   13 1
    23   13   14 1
    24   13   15 1
    25   13   29 1
    26   15   16 1
    27   15   44 1
    28   15   54 1
    29   16   17 1
    30   16   21 1
    31   16   26 1
    32   17   18 1
    33   17   19 1
    34   19   20 2
    35   21   22 1
    36   21   45 1
    37   21   46 1
    38   22   23 1
    39   22   47 1
    40   22   48 1
    41   23   24 2
    42   23   25 1
    43   26   27 2
    44   26   28 1
    45   29   34 ar
    46   29   30 ar
    47   30   31 ar
    48   30   49 1
    49   31   32 ar
    50   31   50 1
    51   32   33 ar
    52   32   36 1
    53   33   34 ar
    54   33   51 1
    55   34   35 1
    56   35   52 1
    57   36   53 1
@<TRIPOS>MOLECULE
ZINC02810835
   38    39     0     0     0
SMALL
USER_CHARGES
8-hydroxy-3,6-bis(methylsulfamoyl)naphthalene-1-sulfonic acid
@<TRIPOS>ATOM
      1 C1         -0.7314    2.9967   -1.3997 C.3       1 <0>         0.0808
      2 N1         -0.4619    1.6105   -1.0098 N.pl3     1 <0>        -1.1193
      3 S1          0.3374    1.2886    0.4043 S.o2      1 <0>         2.7012
      4 O1          0.4196   -0.1260    0.5114 O.2       1 <0>        -0.9546
      5 O2          1.4884    2.1218    0.4190 O.2       1 <0>        -0.9570
      6 C2         -0.6962    1.8343    1.7228 C.ar      1 <0>        -0.6629
      7 C3         -0.5766    3.1100    2.1839 C.ar      1 <0>         0.0055
      8 C4         -1.4010    3.5532    3.2320 C.ar      1 <0>        -0.1041
      9 C5         -1.3072    4.8645    3.7294 C.ar      1 <0>         0.0452
     10 C6         -2.1184    5.2574    4.7491 C.ar      1 <0>        -0.6938
     11 C7         -3.0425    4.3780    5.3102 C.ar      1 <0>         0.0542
     12 C8         -3.1607    3.1007    4.8541 C.ar      1 <0>        -0.6568
     13 C9         -2.3408    2.6596    3.8029 C.ar      1 <0>         0.0674
     14 C10        -2.4339    1.3444    3.3042 C.ar      1 <0>         0.1255
     15 C11        -1.6179    0.9527    2.2802 C.ar      1 <0>        -0.0755
     16 O3         -3.3279    0.4725    3.8379 O.3       1 <0>        -0.4563
     17 S2         -4.3367    2.0069    5.5787 S.o2      1 <0>         2.7031
     18 O4         -4.8943    2.6904    6.6929 O.2       1 <0>        -1.0571
     19 O5         -5.1347    1.5060    4.5150 O.2       1 <0>        -1.0185
     20 S3         -1.9982    6.9022    5.3694 S.o2      1 <0>         2.6983
     21 O6         -1.4482    7.6915    4.3236 O.2       1 <0>        -0.9572
     22 O7         -3.2497    7.2014    5.9722 O.2       1 <0>        -0.9491
     23 N2         -0.8777    6.8849    6.5887 N.pl3     1 <0>        -1.1189
     24 C12         0.5236    6.5778    6.2915 C.3       1 <0>         0.0810
     25 H1         -1.2618    3.0098   -2.3519 H         1 <0>         0.0843
     26 H2         -1.3436    3.4764   -0.6361 H         1 <0>         0.0616
     27 H3          0.2108    3.5353   -1.5013 H         1 <0>         0.0696
     28 H4         -0.7517    0.8812   -1.5800 H         1 <0>         0.4203
     29 H5          0.1466    3.7800    1.7429 H         1 <0>         0.1506
     30 H6         -0.5956    5.5568    3.3042 H         1 <0>         0.1529
     31 H7         -3.6741    4.7146    6.1190 H         1 <0>         0.1588
     32 H8         -1.6890   -0.0551    1.8984 H         1 <0>         0.1504
     33 H9         -2.9529   -0.1137    4.5092 H         1 <0>         0.4079
     34 H10        -1.1492    7.0781    7.4997 H         1 <0>         0.4218
     35 H11         0.5926    5.5809    5.8563 H         1 <0>         0.0602
     36 H12         0.9142    7.3105    5.5853 H         1 <0>         0.0697
     37 H13         1.1065    6.6137    7.2119 H         1 <0>         0.0852
     38 O8         -3.5635    0.8213    6.1382 O.3       1 <0>        -1.0741
@<TRIPOS>BOND
     1    1    2 1
     2    1   25 1
     3    1   26 1
     4    1   27 1
     5    2    3 1
     6    2   28 1
     7    3    4 2
     8    3    5 2
     9    3    6 1
    10    6   15 ar
    11    6    7 ar
    12    7    8 ar
    13    7   29 1
    14    8   13 ar
    15    8    9 ar
    16    9   10 ar
    17    9   30 1
    18   10   11 ar
    19   10   20 1
    20   11   12 ar
    21   11   31 1
    22   12   13 ar
    23   12   17 1
    24   13   14 ar
    25   14   15 ar
    26   14   16 1
    27   15   32 1
    28   16   33 1
    29   17   18 2
    30   17   19 2
    31   17   38 1
    32   20   21 2
    33   20   22 2
    34   20   23 1
    35   23   24 1
    36   23   34 1
    37   24   35 1
    38   24   36 1
    39   24   37 1
@<TRIPOS>MOLECULE
ZINC13469579
   44    45     0     0     0
SMALL
USER_CHARGES
(2S)-2-methyl-4-[(2-nitro-4-sulfamoyl-phenyl)amino]-4-oxo-2-phenyl-butanoic acid
@<TRIPOS>ATOM
      1 C1         -2.5782    0.1382   -1.2106 C.3       1 <0>        -0.1280
      2 C2         -2.5163    0.9979    0.0536 C.3       1 <0>        -0.0612
      3 C3         -3.6957    1.9724    0.0658 C.3       1 <0>        -0.1118
      4 C4         -4.9880    1.1973    0.0483 C.2       1 <0>         0.5134
      5 O1         -4.9676   -0.0152    0.0279 O.2       1 <0>        -0.4638
      6 N1         -6.1663    1.8515    0.0552 N.am      1 <0>        -0.6725
      7 C5         -7.3640    1.1366   -0.0555 C.ar      1 <0>         0.2891
      8 C6         -7.4827   -0.1175    0.5296 C.ar      1 <0>        -0.1457
      9 C7         -8.6660   -0.8204    0.4185 C.ar      1 <0>         0.0452
     10 C8         -9.7324   -0.2770   -0.2746 C.ar      1 <0>        -0.7101
     11 C9         -9.6176    0.9711   -0.8582 C.ar      1 <0>         0.0693
     12 C10        -8.4384    1.6818   -0.7457 C.ar      1 <0>        -0.1070
     13 N2         -8.3183    3.0205   -1.3656 N.pl3     1 <0>         0.0414
     14 O2         -9.2894    3.5402   -1.8857 O.2       1 <0>        -0.1497
     15 O3         -7.2484    3.6025   -1.3557 O.3       1 <0>        -0.1712
     16 S1        -11.2405   -1.1775   -0.4145 S.o2      1 <0>         2.7117
     17 O4        -11.8998   -0.6877   -1.5741 O.2       1 <0>        -0.9571
     18 O5        -10.9111   -2.5497   -0.2479 O.2       1 <0>        -0.9506
     19 N3        -12.1840   -0.7567    0.8797 N.pl3     1 <0>        -1.2466
     20 C11        -1.2240    1.7731    0.0711 C.ar      1 <0>        -0.0255
     21 C12        -0.0154    1.1021    0.0640 C.ar      1 <0>        -0.1090
     22 C13         1.1699    1.8132    0.0744 C.ar      1 <0>        -0.1192
     23 C14         1.1467    3.1952    0.0972 C.ar      1 <0>        -0.1399
     24 C15        -0.0618    3.8660    0.1097 C.ar      1 <0>        -0.1210
     25 C16        -1.2472    3.1549    0.0993 C.ar      1 <0>        -0.1276
     26 C17        -2.5858    0.1097    1.2690 C.2       1 <0>         0.4844
     27 O6         -2.6757   -1.0880    1.1376 O.co2     1 <0>        -0.6151
     28 H1         -1.7379   -0.5560   -1.2193 H         1 <0>         0.0556
     29 H2         -3.5129   -0.4224   -1.2233 H         1 <0>         0.0801
     30 H3         -2.5279    0.7807   -2.0897 H         1 <0>         0.0339
     31 H4         -3.6516    2.5849    0.9664 H         1 <0>         0.1100
     32 H5         -3.6454    2.6149   -0.8133 H         1 <0>         0.0966
     33 H6         -6.1841    2.8179    0.1369 H         1 <0>         0.4260
     34 H7         -6.6504   -0.5422    1.0712 H         1 <0>         0.1790
     35 H8         -8.7590   -1.7955    0.8735 H         1 <0>         0.1653
     36 H9        -10.4522    1.3929   -1.3984 H         1 <0>         0.1726
     37 H10       -13.1505   -0.7659    0.7987 H         1 <0>         0.4229
     38 H11       -11.7700   -0.5011    1.7189 H         1 <0>         0.4189
     39 H12         0.0027    0.0224    0.0459 H         1 <0>         0.1192
     40 H13         2.1142    1.2891    0.0644 H         1 <0>         0.1158
     41 H14         2.0729    3.7507    0.1050 H         1 <0>         0.1137
     42 H15        -0.0800    4.9457    0.1271 H         1 <0>         0.1156
     43 H16        -2.1915    3.6791    0.1086 H         1 <0>         0.1203
     44 O7         -2.5480    0.6492    2.4975 O.co2     1 <0>        -0.7677
@<TRIPOS>BOND
     1    1    2 1
     2    1   28 1
     3    1   29 1
     4    1   30 1
     5    2    3 1
     6    2   20 1
     7    2   26 1
     8    3    4 1
     9    3   31 1
    10    3   32 1
    11    4    5 2
    12    4    6 am
    13    6    7 1
    14    6   33 1
    15    7   12 ar
    16    7    8 ar
    17    8    9 ar
    18    8   34 1
    19    9   10 ar
    20    9   35 1
    21   10   11 ar
    22   10   16 1
    23   11   12 ar
    24   11   36 1
    25   12   13 1
    26   13   14 2
    27   13   15 1
    28   16   17 2
    29   16   18 2
    30   16   19 1
    31   19   37 1
    32   19   38 1
    33   20   25 ar
    34   20   21 ar
    35   21   22 ar
    36   21   39 1
    37   22   23 ar
    38   22   40 1
    39   23   24 ar
    40   23   41 1
    41   24   25 ar
    42   24   42 1
    43   25   43 1
    44   26   27 2
    45   26   44 1
@<TRIPOS>MOLECULE
ZINC38794091
   47    50     0     0     0
SMALL
USER_CHARGES

@<TRIPOS>ATOM
      1 C1         -0.0167    1.3780    0.0096 C.ar      1 <0>        -0.1292
      2 C2          1.1706    2.0866    0.0021 C.ar      1 <0>        -0.0759
      3 C3          2.3773    1.4137   -0.0131 C.ar      1 <0>        -0.1535
      4 C4          2.3974    0.0291   -0.0207 C.ar      1 <0>         0.1222
      5 C5          1.2080   -0.6793   -0.0132 C.ar      1 <0>        -0.1293
      6 C6          0.0021   -0.0041    0.0020 C.ar      1 <0>        -0.0711
      7 C7          1.2281   -2.1862   -0.0220 C.3       1 <0>        -0.5700
      8 S1          1.2528   -2.8005    1.6846 S.o2      1 <0>         2.4057
      9 O1          2.4785   -2.4070    2.2863 O.2       1 <0>        -0.8969
     10 O2          0.0289   -2.4398    2.3100 O.2       1 <0>        -0.8972
     11 C8          1.2748   -4.6007    1.4622 C.3       1 <0>        -0.2677
     12 H1          1.3034   -5.1024    2.4295 H         1 <0>         0.1601
     13 N1          0.0918   -5.0402    0.6868 N.3       1 <0>        -0.4553
     14 N2          0.5633   -6.1188   -0.1839 N.3       1 <0>        -0.4732
     15 C9          2.0065   -6.2744    0.1111 C.3       1 <0>         0.2020
     16 H2          2.1614   -7.0640    0.8463 H         1 <0>         0.1314
     17 O3          2.4074   -4.9955    0.6556 O.3       1 <0>        -0.3588
     18 C10         2.7836   -6.5800   -1.1709 C.3       1 <0>         0.1044
     19 N3          2.6074   -5.4803   -2.1227 N.pl3     1 <0>        -1.1264
     20 S2          3.6118   -5.3504   -3.4329 S.o2      1 <0>         2.7049
     21 O4          3.1753   -4.2154   -4.1682 O.2       1 <0>        -0.9624
     22 O5          4.9391   -5.4751   -2.9411 O.2       1 <0>        -0.9570
     23 C11         3.3193   -6.7555   -4.4549 C.ar      1 <0>        -0.7262
     24 C12         4.0534   -7.9151   -4.2575 C.ar      1 <0>        -0.0201
     25 C13         3.8350   -9.0214   -5.0488 C.ar      1 <0>        -0.1403
     26 C14         2.8689   -8.9732   -6.0545 C.ar      1 <0>         0.1539
     27 C15         2.1285   -7.7980   -6.2509 C.ar      1 <0>        -0.0602
     28 C16         2.3572   -6.6961   -5.4426 C.ar      1 <0>         0.0296
     29 O6          1.2837   -8.0473   -7.2775 O.3       1 <0>        -0.2710
     30 C17         1.4900   -9.3082   -7.6939 C.2       1 <0>         0.5255
     31 O7          0.8248   -9.9075   -8.7068 O.3       1 <0>        -0.6264
     32 N4          2.4271   -9.8704   -6.9784 N.2       1 <0>        -0.6047
     33 F1          3.5766   -0.6299   -0.0360 F         1 <0>        -0.1235
     34 H3         -0.9594    1.9048    0.0260 H         1 <0>         0.1385
     35 H4          1.1547    3.1665    0.0077 H         1 <0>         0.1394
     36 H5          3.3046    1.9675   -0.0193 H         1 <0>         0.1441
     37 H6         -0.9259   -0.5565    0.0083 H         1 <0>         0.1432
     38 H7          0.3381   -2.5585   -0.5293 H         1 <0>         0.1460
     39 H8          2.1178   -2.5346   -0.5465 H         1 <0>         0.1544
     40 H9         -0.2889   -4.2787    0.1453 H         1 <0>         0.3254
     41 H10         0.4155   -5.8900   -1.1555 H         1 <0>         0.3443
     42 H11         3.8422   -6.6913   -0.9362 H         1 <0>         0.1105
     43 H12         2.4098   -7.5046   -1.6107 H         1 <0>         0.1070
     44 H13         1.9025   -4.8284   -1.9854 H         1 <0>         0.4057
     45 H14         4.8011   -7.9511   -3.4790 H         1 <0>         0.1349
     46 H15         4.4095   -9.9224   -4.8915 H         1 <0>         0.1300
     47 H16         1.7865   -5.7909   -5.5879 H         1 <0>         0.1328
@<TRIPOS>BOND
     1    1    6 ar
     2    1    2 ar
     3    1   34 1
     4    2    3 ar
     5    2   35 1
     6    3    4 ar
     7    3   36 1
     8    4    5 ar
     9    4   33 1
    10    5    6 ar
    11    5    7 1
    12    6   37 1
    13    7    8 1
    14    7   38 1
    15    7   39 1
    16    8    9 2
    17    8   10 2
    18    8   11 1
    19   11   12 1
    20   11   17 1
    21   11   13 1
    22   13   14 1
    23   13   40 1
    24   14   15 1
    25   14   41 1
    26   15   16 1
    27   15   17 1
    28   15   18 1
    29   18   19 1
    30   18   42 1
    31   18   43 1
    32   19   20 1
    33   19   44 1
    34   20   21 2
    35   20   22 2
    36   20   23 1
    37   23   28 ar
    38   23   24 ar
    39   24   25 ar
    40   24   45 1
    41   25   26 ar
    42   25   46 1
    43   26   32 1
    44   26   27 ar
    45   27   28 ar
    46   27   29 1
    47   28   47 1
    48   29   30 1
    49   30   31 1
    50   30   32 2
@<TRIPOS>MOLECULE
ZINC55165143
   40    41     0     0     0
SMALL
USER_CHARGES

@<TRIPOS>ATOM
      1 C1         -0.0184    1.5028    0.0103 C.3       1 <0>        -0.1088
      2 C2          0.0021   -0.0041    0.0020 C.ar      1 <0>         0.2284
      3 C3          0.0060   -0.6989   -1.1973 C.ar      1 <0>        -0.2977
      4 C4          0.0255   -2.0843   -1.1603 C.ar      1 <0>         0.2242
      5 N1          0.0397   -2.6984    0.0111 N.ar      1 <0>        -0.5736
      6 C5          0.0354   -2.0044    1.1397 C.ar      1 <0>         0.5780
      7 N2          0.0220   -0.6795    1.1391 N.ar      1 <0>        -0.5767
      8 N3          0.0502   -2.6793    2.3480 N.pl3     1 <0>        -0.4870
      9 N4          0.0460   -1.9618    3.5513 N.am      1 <0>        -0.5124
     10 C6          0.0603   -2.6191    4.7278 C.2       1 <0>         0.5692
     11 O1          0.0769   -3.8347    4.7450 O.2       1 <0>        -0.5331
     12 C7          0.0559   -1.8634    5.9951 C.ar      1 <0>        -0.1182
     13 C8          0.0310   -0.4667    5.9793 C.ar      1 <0>        -0.1397
     14 C9          0.0271    0.2353    7.1720 C.ar      1 <0>         0.2714
     15 C10         0.0478   -0.4468    8.3843 C.ar      1 <0>        -0.2089
     16 C11         0.0728   -1.8265    8.4071 C.ar      1 <0>        -0.0975
     17 C12         0.0708   -2.5432    7.2198 C.ar      1 <0>         0.0576
     18 O2          0.0888   -3.9004    7.2444 O.3       1 <0>        -0.4815
     19 N5          0.0026    1.6347    7.1586 N.2       1 <0>        -1.0963
     20 S1         -0.0021    2.4765    8.5846 S.o2      1 <0>         2.5259
     21 O3         -1.2265    2.1203    9.2118 O.2       1 <0>        -1.0291
     22 O4          1.2424    2.1632    9.1948 O.2       1 <0>        -1.0298
     23 C13        -0.0359    4.2229    8.0950 C.3       1 <0>        -0.6360
     24 C14         0.0299   -2.8813   -2.4393 C.3       1 <0>        -0.1049
     25 H1          1.0042    1.8801    0.0026 H         1 <0>         0.0865
     26 H2         -0.5455    1.8639   -0.8728 H         1 <0>         0.0803
     27 H3         -0.5286    1.8543    0.9071 H         1 <0>         0.0856
     28 H4         -0.0062   -0.1722   -2.1401 H         1 <0>         0.1423
     29 H5          0.0634   -3.6492    2.3616 H         1 <0>         0.4451
     30 H6          0.0327   -0.9920    3.5376 H         1 <0>         0.4356
     31 H7          0.0153    0.0639    5.0387 H         1 <0>         0.1206
     32 H8          0.0445    0.1060    9.3121 H         1 <0>         0.1116
     33 H9          0.0891   -2.3494    9.3519 H         1 <0>         0.1184
     34 H10         0.9774   -4.2819    7.2473 H         1 <0>         0.3702
     35 H11        -0.9335    4.4184    7.5083 H         1 <0>         0.1159
     36 H12        -0.0406    4.8501    8.9864 H         1 <0>         0.1018
     37 H13         0.8462    4.4494    7.4960 H         1 <0>         0.1158
     38 H14         1.0585   -3.0592   -2.7530 H         1 <0>         0.0847
     39 H15        -0.4698   -3.8359   -2.2743 H         1 <0>         0.0813
     40 H16        -0.4957   -2.3254   -3.2157 H         1 <0>         0.0808
@<TRIPOS>BOND
     1    1    2 1
     2    1   25 1
     3    1   26 1
     4    1   27 1
     5    2    7 ar
     6    2    3 ar
     7    3    4 ar
     8    3   28 1
     9    4    5 ar
    10    4   24 1
    11    5    6 ar
    12    6    7 ar
    13    6    8 1
    14    8    9 1
    15    8   29 1
    16    9   10 am
    17    9   30 1
    18   10   11 2
    19   10   12 1
    20   12   17 ar
    21   12   13 ar
    22   13   14 ar
    23   13   31 1
    24   14   15 ar
    25   14   19 1
    26   15   16 ar
    27   15   32 1
    28   16   17 ar
    29   16   33 1
    30   17   18 1
    31   18   34 1
    32   19   20 1
    33   20   21 2
    34   20   22 2
    35   20   23 1
    36   23   35 1
    37   23   36 1
    38   23   37 1
    39   24   38 1
    40   24   39 1
    41   24   40 1
@<TRIPOS>MOLECULE
ZINC64662734
   43    43     0     0     0
SMALL
USER_CHARGES

@<TRIPOS>ATOM
      1 C1         -0.0187    1.5258    0.0104 C.3       1 <0>        -0.1457
      2 C2          0.0021   -0.0041    0.0020 C.3       1 <0>        -0.1086
      3 C3          0.7421   -0.5109    1.2415 C.3       1 <0>        -0.1503
      4 C4         -1.4333   -0.5336    0.0129 C.3       1 <0>         0.1224
      5 N1         -1.4164   -1.9929   -0.1155 N.am      1 <0>        -0.7291
      6 C5         -2.5748   -2.6816   -0.1296 C.2       1 <0>         0.5074
      7 O1         -3.6313   -2.0933   -0.0360 O.2       1 <0>        -0.5277
      8 C6         -2.5575   -4.1827   -0.2617 C.3       1 <0>         0.1045
      9 N2         -3.9319   -4.6898   -0.2513 N.am      1 <0>        -0.7236
     10 C7         -4.1626   -6.0134   -0.3579 C.2       1 <0>         0.5711
     11 O2         -3.2301   -6.7866   -0.4628 O.2       1 <0>        -0.5362
     12 C8         -5.5468   -6.5241   -0.3474 C.ar      1 <0>        -0.1272
     13 C9         -6.6209   -5.6381   -0.2330 C.ar      1 <0>        -0.1379
     14 C10        -7.9167   -6.1245   -0.2243 C.ar      1 <0>         0.2694
     15 C11        -8.1504   -7.4919   -0.3293 C.ar      1 <0>        -0.2126
     16 C12        -7.0939   -8.3726   -0.4427 C.ar      1 <0>        -0.0997
     17 C13        -5.7905   -7.8991   -0.4581 C.ar      1 <0>         0.0522
     18 O3         -4.7529   -8.7666   -0.5753 O.3       1 <0>        -0.4818
     19 N3         -8.9942   -5.2388   -0.1093 N.2       1 <0>        -1.0965
     20 S1        -10.5453   -5.8187   -0.0988 S.o2      1 <0>         2.5255
     21 O4        -10.7218   -6.4054   -1.3809 O.2       1 <0>        -1.0299
     22 O5        -10.6282   -6.6110    1.0780 O.2       1 <0>        -1.0306
     23 C14       -11.5924   -4.3465    0.0642 C.3       1 <0>        -0.6361
     24 H1          1.0039    1.9031    0.0027 H         1 <0>         0.0597
     25 H2         -0.5459    1.8868   -0.8726 H         1 <0>         0.0584
     26 H3         -0.5289    1.8773    0.9072 H         1 <0>         0.0586
     27 H4          0.5123   -0.3556   -0.8948 H         1 <0>         0.0772
     28 H5          0.2319   -0.1594    2.1383 H         1 <0>         0.0580
     29 H6          0.7568   -1.6008    1.2356 H         1 <0>         0.0559
     30 H7          1.7647   -0.1336    1.2338 H         1 <0>         0.0575
     31 H8         -1.9156   -0.2570    0.9504 H         1 <0>         0.0696
     32 H9         -1.9862   -0.1019   -0.8214 H         1 <0>         0.0692
     33 H10        -0.5715   -2.4635   -0.1904 H         1 <0>         0.4022
     34 H11        -2.0752   -4.4594   -1.1992 H         1 <0>         0.0963
     35 H12        -2.0046   -4.6145    0.5726 H         1 <0>         0.0960
     36 H13        -4.6758   -4.0730   -0.1676 H         1 <0>         0.4148
     37 H14        -6.4406   -4.5764   -0.1511 H         1 <0>         0.1211
     38 H15        -9.1635   -7.8661   -0.3217 H         1 <0>         0.1099
     39 H16        -7.2828   -9.4328   -0.5238 H         1 <0>         0.1159
     40 H17        -4.4173   -9.0949    0.2701 H         1 <0>         0.3683
     41 H18       -11.4168   -3.6804   -0.7805 H         1 <0>         0.1157
     42 H19       -12.6404   -4.6458    0.0790 H         1 <0>         0.1013
     43 H20       -11.3493   -3.8286    0.9920 H         1 <0>         0.1156
@<TRIPOS>BOND
     1    1    2 1
     2    1   24 1
     3    1   25 1
     4    1   26 1
     5    2    3 1
     6    2    4 1
     7    2   27 1
     8    3   28 1
     9    3   29 1
    10    3   30 1
    11    4    5 1
    12    4   31 1
    13    4   32 1
    14    5    6 am
    15    5   33 1
    16    6    7 2
    17    6    8 1
    18    8    9 1
    19    8   34 1
    20    8   35 1
    21    9   10 am
    22    9   36 1
    23   10   11 2
    24   10   12 1
    25   12   17 ar
    26   12   13 ar
    27   13   14 ar
    28   13   37 1
    29   14   15 ar
    30   14   19 1
    31   15   16 ar
    32   15   38 1
    33   16   17 ar
    34   16   39 1
    35   17   18 1
    36   18   40 1
    37   19   20 1
    38   20   21 2
    39   20   22 2
    40   20   23 1
    41   23   41 1
    42   23   42 1
    43   23   43 1
@<TRIPOS>MOLECULE
ZINC03831425
   50    52     0     0     0
SMALL
USER_CHARGES
[5-(dimethyl-dioxo-BLAHyl)-2,3,4-trihydroxy-pentoxy]phosphonic acid
@<TRIPOS>ATOM
      1 C1          0.8899    4.8434   -5.0142 C.3       1 <0>        -0.1165
      2 C2          0.6277    3.5215   -4.3397 C.ar      1 <0>        -0.1110
      3 C3         -0.3293    2.6898   -4.8373 C.ar      1 <0>        -0.0143
      4 C4         -0.5798    1.4527   -4.2120 C.ar      1 <0>         0.0126
      5 C5          0.1712    1.0918   -3.0702 C.ar      1 <0>         0.1929
      6 C6          1.1431    1.9617   -2.5835 C.ar      1 <0>        -0.1547
      7 C7          1.3660    3.1645   -3.2163 C.ar      1 <0>         0.0104
      8 C8          2.4191    4.1031   -2.6859 C.3       1 <0>        -0.1324
      9 N1         -0.0549   -0.1139   -2.4405 N.pl3     1 <0>        -0.4310
     10 C9         -1.0100   -0.9428   -2.9478 C.2       1 <0>         0.4431
     11 N2         -1.2933   -2.1125   -2.3994 N.2       1 <0>        -0.5915
     12 C10        -2.2333   -2.9081   -2.9034 C.2       1 <0>         0.6813
     13 O1         -2.4372   -3.9741   -2.3494 O.2       1 <0>        -0.5038
     14 N3         -2.9697   -2.6099   -3.9832 N.am      1 <0>        -0.6853
     15 H1         -3.6580   -3.2614   -4.3022 H         1 <0>         0.4309
     16 C11        -2.8000   -1.4447   -4.6500 C.2       1 <0>         0.5902
     17 O2         -3.4665   -1.1718   -5.6295 O.2       1 <0>        -0.4701
     18 C12        -1.7679   -0.5170   -4.1360 C.2       1 <0>         0.0217
     19 N4         -1.5212    0.6360   -4.7034 N.2       1 <0>        -0.3018
     20 C13         0.7182   -0.4975   -1.2568 C.3       1 <0>         0.0590
     21 C14         0.0021   -0.0041    0.0020 C.3       1 <0>         0.0697
     22 H2         -1.0205   -0.3814    0.0098 H         1 <0>         0.1129
     23 C15         0.7421   -0.5109    1.2415 C.3       1 <0>         0.0535
     24 H3          1.7647   -0.1336    1.2338 H         1 <0>         0.1037
     25 C16         0.0259   -0.0175    2.5003 C.3       1 <0>         0.0808
     26 H4         -0.9967   -0.3948    2.5081 H         1 <0>         0.1003
     27 C17         0.7659   -0.5243    3.7399 C.3       1 <0>         0.1067
     28 O3          0.0340   -0.1626    4.9127 O.3       1 <0>        -0.7519
     29 P1          0.5221   -0.5359    6.4008 P.3       1 <0>         2.1342
     30 O4          0.7397   -1.9967    6.4967 O.2       1 <0>        -1.1658
     31 O5          0.0066    1.4114    2.5082 O.3       1 <0>        -0.5305
     32 O6          0.7614   -1.9398    1.2337 O.3       1 <0>        -0.5430
     33 O7         -0.0173    1.4248    0.0099 O.3       1 <0>        -0.5258
     34 H5          0.2511    5.6090   -4.5739 H         1 <0>         0.0775
     35 H6          1.9354    5.1199   -4.8777 H         1 <0>         0.0761
     36 H7          0.6729    4.7573   -6.0789 H         1 <0>         0.0706
     37 H8         -0.8952    2.9784   -5.7107 H         1 <0>         0.1506
     38 H9          1.7213    1.6937   -1.7116 H         1 <0>         0.1461
     39 H10         1.9711    4.7760   -1.9548 H         1 <0>         0.0913
     40 H11         3.2131    3.5270   -2.2108 H         1 <0>         0.0786
     41 H12         2.8347    4.6850   -3.5085 H         1 <0>         0.0813
     42 H13         1.7103   -0.0491   -1.3098 H         1 <0>         0.1050
     43 H14         0.8116   -1.5829   -1.2198 H         1 <0>         0.1375
     44 H15         0.8584   -1.6092    3.6895 H         1 <0>         0.0492
     45 H16         1.7589   -0.0764    3.7787 H         1 <0>         0.0319
     46 H17         0.8845    1.8167    2.5020 H         1 <0>         0.3613
     47 H18        -0.1165   -2.3450    1.2399 H         1 <0>         0.3854
     48 H19         0.8606    1.8301    0.0037 H         1 <0>         0.3653
     49 O8          1.8988    0.2341    6.7231 O.3       1 <0>        -1.2019
     50 O9         -0.6034   -0.0902    7.4624 O.3       1 <0>        -1.1803
@<TRIPOS>BOND
     1    1    2 1
     2    1   34 1
     3    1   35 1
     4    1   36 1
     5    2    7 ar
     6    2    3 ar
     7    3    4 ar
     8    3   37 1
     9    4   19 1
    10    4    5 ar
    11    5    6 ar
    12    5    9 1
    13    6    7 ar
    14    6   38 1
    15    7    8 1
    16    8   39 1
    17    8   40 1
    18    8   41 1
    19    9   10 1
    20    9   20 1
    21   10   18 1
    22   10   11 2
    23   11   12 1
    24   12   13 2
    25   12   14 am
    26   14   15 1
    27   14   16 am
    28   16   17 2
    29   16   18 1
    30   18   19 2
    31   20   21 1
    32   20   42 1
    33   20   43 1
    34   21   22 1
    35   21   23 1
    36   21   33 1
    37   23   24 1
    38   23   25 1
    39   23   32 1
    40   25   26 1
    41   25   27 1
    42   25   31 1
    43   27   28 1
    44   27   44 1
    45   27   45 1
    46   28   29 1
    47   29   30 2
    48   29   49 1
    49   29   50 1
    50   31   46 1
    51   32   47 1
    52   33   48 1
@<TRIPOS>MOLECULE
ZINC22056689
   34    34     0     0     0
SMALL
USER_CHARGES

@<TRIPOS>ATOM
      1 C1          0.1880    1.6730   -1.6460 C.2       1 <0>        -0.2484
      2 C2          1.5170    1.9156   -1.5381 C.2       1 <0>         0.1145
      3 N1          2.3300    0.9595   -1.1392 N.2       1 <0>        -0.5868
      4 C3          1.8696   -0.2500   -0.8374 C.2       1 <0>         0.3534
      5 S1          0.1198   -0.0405   -1.1389 S.3       1 <0>         0.0097
      6 N2          2.5468   -1.3503   -0.4139 N.2       1 <0>        -0.5872
      7 C4          3.8316   -1.2678   -0.1415 C.2       1 <0>         0.6859
      8 N3          4.4552   -0.0471   -0.1412 N.pl3     1 <0>        -0.8548
      9 N4          4.5464   -2.4026    0.1419 N.pl3     1 <0>        -0.8267
     10 C5          2.0642    3.2787   -1.8749 C.3       1 <0>        -0.3819
     11 S2          2.0625    4.3157   -0.3865 S.o       1 <0>         1.2272
     12 O1          2.9308    3.7500    0.5858 O.2       1 <0>        -0.8419
     13 C6          2.7406    5.8995   -0.9542 C.3       1 <0>        -0.4122
     14 C7          2.7954    6.8805    0.2185 C.3       1 <0>        -0.0644
     15 C8          3.3588    8.1963   -0.2531 C.2       1 <0>         0.4941
     16 O2          3.5009    9.2193    0.6150 O.3       1 <0>        -0.7261
     17 N5          3.7052    8.3445   -1.4873 N.2       1 <0>        -1.0703
     18 S3          4.3242    9.7904   -2.0056 S.o2      1 <0>         2.7533
     19 O3          3.2751   10.7429   -1.8992 O.2       1 <0>        -1.0345
     20 O4          5.5733    9.9563   -1.3486 O.2       1 <0>        -1.0362
     21 N6          4.6562    9.6303   -3.6201 N.pl3     1 <0>        -1.2574
     22 H1         -0.6104    2.3337   -1.9499 H         1 <0>         0.1984
     23 H2          3.9405    0.7603    0.0141 H         1 <0>         0.4349
     24 H3          5.4110    0.0093   -0.2962 H         1 <0>         0.3956
     25 H4          4.1052   -3.2664    0.1417 H         1 <0>         0.4226
     26 H5          5.4934   -2.3418    0.3427 H         1 <0>         0.4121
     27 H6          3.0839    3.1791   -2.2471 H         1 <0>         0.0978
     28 H7          1.4415    3.7412   -2.6406 H         1 <0>         0.1298
     29 H8          3.7460    5.7448   -1.3458 H         1 <0>         0.0923
     30 H9          2.1036    6.3069   -1.7393 H         1 <0>         0.1252
     31 H10         1.7900    7.0352    0.6101 H         1 <0>         0.0892
     32 H11         3.4324    6.4731    1.0036 H         1 <0>         0.0815
     33 H12         4.4769    8.7905   -4.0711 H         1 <0>         0.4078
     34 H13         5.0301   10.3763   -4.1147 H         1 <0>         0.4036
@<TRIPOS>BOND
     1    1    5 1
     2    1    2 2
     3    1   22 1
     4    2    3 1
     5    2   10 1
     6    3    4 2
     7    4    5 1
     8    4    6 1
     9    6    7 2
    10    7    8 1
    11    7    9 1
    12    8   23 1
    13    8   24 1
    14    9   25 1
    15    9   26 1
    16   10   11 1
    17   10   27 1
    18   10   28 1
    19   11   12 2
    20   11   13 1
    21   13   14 1
    22   13   29 1
    23   13   30 1
    24   14   15 1
    25   14   31 1
    26   14   32 1
    27   15   16 1
    28   15   17 2
    29   17   18 1
    30   18   19 2
    31   18   20 2
    32   18   21 1
    33   21   33 1
    34   21   34 1
@<TRIPOS>MOLECULE
ZINC32303435
   51    52     0     0     0
SMALL
USER_CHARGES
(2S,4S,5R,6R)-5-acetamido-4-hydroxy-2-(4-nitrophenoxy)-6-[(1R,2R)-1,2,3-trihydroxypropyl]tetrahydropyran-2-carboxylic acid
@<TRIPOS>ATOM
      1 C1         -1.2886    1.3660    3.6064 C.3       1 <0>        -0.1700
      2 C2         -0.5807    0.8787    2.3684 C.2       1 <0>         0.5120
      3 O1          0.0971   -0.1260    2.4133 O.2       1 <0>        -0.5354
      4 N1         -0.7009    1.5595    1.2115 N.am      1 <0>        -0.7255
      5 C3         -0.0127    1.0858    0.0080 C.3       1 <0>         0.1498
      6 H1         -0.0236   -0.0135    0.0453 H         1 <0>         0.0984
      7 C4          1.4239    1.6173   -0.0029 C.3       1 <0>         0.0980
      8 H2          1.4515    2.7101    0.1198 H         1 <0>         0.1078
      9 C5          2.1088    1.1795   -1.3011 C.3       1 <0>        -0.1435
     10 C6          1.2934    1.6844   -2.4945 C.3       1 <0>         0.2344
     11 O2         -0.0402    1.1785   -2.4067 O.3       1 <0>        -0.3816
     12 C7         -0.7461    1.5944   -1.2359 C.3       1 <0>         0.0989
     13 H3         -0.7622    2.6938   -1.2693 H         1 <0>         0.1425
     14 C8         -2.1635    1.0190   -1.2634 C.3       1 <0>         0.1431
     15 H4         -2.7431    1.3443   -0.3869 H         1 <0>         0.0722
     16 C9         -2.8537    1.4255   -2.5669 C.3       1 <0>         0.0901
     17 H5         -2.2740    1.1002   -3.4433 H         1 <0>         0.0730
     18 C10        -4.2712    0.8501   -2.5944 C.3       1 <0>         0.0524
     19 O3         -4.8746    1.1303   -3.8591 O.3       1 <0>        -0.5968
     20 O4         -2.9166    2.8508   -2.6483 O.3       1 <0>        -0.5830
     21 O5         -2.1007   -0.4063   -1.1820 O.3       1 <0>        -0.5736
     22 C11         1.2617    3.1910   -2.4800 C.2       1 <0>         0.4358
     23 O6          1.6257    3.8123   -3.4503 O.co2     1 <0>        -0.5969
     24 O7          0.8289    3.8427   -1.3893 O.co2     1 <0>        -0.7178
     25 O8          1.8958    1.2320   -3.7088 O.3       1 <0>        -0.2761
     26 C12         1.2912    1.5960   -4.8703 C.ar      1 <0>         0.2181
     27 C13         0.1387    2.3676   -4.8416 C.ar      1 <0>        -0.1408
     28 C14        -0.4712    2.7402   -6.0238 C.ar      1 <0>        -0.0288
     29 C15         0.0601    2.3359   -7.2345 C.ar      1 <0>        -0.0953
     30 C16         1.2057    1.5624   -7.2656 C.ar      1 <0>        -0.0263
     31 C17         1.8224    1.1916   -6.0864 C.ar      1 <0>        -0.1653
     32 N2         -0.5983    2.7322   -8.4995 N.pl3     1 <0>         0.0458
     33 O9         -0.1309    2.3770   -9.5666 O.2       1 <0>        -0.1856
     34 O10        -1.6075    3.4136   -8.4732 O.3       1 <0>        -0.1796
     35 O11         2.1378    1.0881    1.1162 O.3       1 <0>        -0.5808
     36 H6         -1.8489    2.2830    3.3714 H         1 <0>         0.0723
     37 H7         -0.5486    1.5795    4.3918 H         1 <0>         0.0894
     38 H8         -1.9850    0.5912    3.9595 H         1 <0>         0.0867
     39 H9         -1.3157    2.4708    1.1708 H         1 <0>         0.4150
     40 H10         3.1233    1.6028   -1.3412 H         1 <0>         0.0801
     41 H11         2.1681    0.0815   -1.3322 H         1 <0>         0.0798
     42 H12        -4.2281   -0.2384   -2.4418 H         1 <0>         0.0457
     43 H13        -4.8689    1.3092   -1.7932 H         1 <0>         0.0491
     44 H14        -5.9007    0.7921   -4.0659 H         1 <0>         0.4083
     45 H15        -3.3818    3.3318   -3.5213 H         1 <0>         0.4125
     46 H16        -3.0274   -0.9989   -1.1880 H         1 <0>         0.3942
     47 H17        -0.2790    2.6802   -3.8960 H         1 <0>         0.1607
     48 H18        -1.3660    3.3447   -6.0021 H         1 <0>         0.1466
     49 H19         1.6186    1.2476   -8.2126 H         1 <0>         0.1517
     50 H20         2.7174    0.5877   -6.1112 H         1 <0>         0.1478
     51 H21         3.1917    1.3604    1.2750 H         1 <0>         0.3903
@<TRIPOS>BOND
     1    1    2 1
     2    1   36 1
     3    1   37 1
     4    1   38 1
     5    2    3 2
     6    2    4 am
     7    4    5 1
     8    4   39 1
     9    5    6 1
    10    5   12 1
    11    5    7 1
    12    7    8 1
    13    7    9 1
    14    7   35 1
    15    9   10 1
    16    9   40 1
    17    9   41 1
    18   10   11 1
    19   10   22 1
    20   10   25 1
    21   11   12 1
    22   12   13 1
    23   12   14 1
    24   14   15 1
    25   14   16 1
    26   14   21 1
    27   16   17 1
    28   16   18 1
    29   16   20 1
    30   18   19 1
    31   18   42 1
    32   18   43 1
    33   19   44 1
    34   20   45 1
    35   21   46 1
    36   22   23 2
    37   22   24 1
    38   25   26 1
    39   26   31 ar
    40   26   27 ar
    41   27   28 ar
    42   27   47 1
    43   28   29 ar
    44   28   48 1
    45   29   30 ar
    46   29   32 1
    47   30   31 ar
    48   30   49 1
    49   31   50 1
    50   32   33 2
    51   32   34 1
    52   35   51 1
@<TRIPOS>MOLECULE
ZINC38570069
   70    70     0     0     0
SMALL
USER_CHARGES

@<TRIPOS>ATOM
      1 C1         -0.0187    1.5258    0.0104 C.3       1 <0>        -0.1806
      2 C2          0.0021   -0.0041    0.0020 C.3       1 <0>         0.1099
      3 H1         -1.0205   -0.3814    0.0098 H         1 <0>         0.0537
      4 C3          0.7182   -0.4975   -1.2568 C.3       1 <0>         0.0802
      5 H2          1.7408   -0.1202   -1.2645 H         1 <0>         0.0865
      6 C4          0.7387   -2.0043   -1.2651 C.2       1 <0>         0.4982
      7 O1         -0.1724   -2.6235   -1.7877 O.co2     1 <0>        -0.6990
      8 O2          1.6662   -2.6043   -0.7492 O.co2     1 <0>        -0.6814
      9 N1          0.0097   -0.0122   -2.4437 N.am      1 <0>        -0.6923
     10 C5          0.6691    0.1319   -3.6102 C.2       1 <0>         0.5143
     11 O3          1.8491   -0.1402   -3.6774 O.2       1 <0>        -0.5440
     12 C6         -0.0598    0.6311   -4.8311 C.3       1 <0>        -0.1045
     13 C7         -0.6267    2.0246   -4.5524 C.3       1 <0>        -0.1082
     14 C8         -1.3667    2.5315   -5.7919 C.3       1 <0>        -0.1077
     15 C9         -0.3956    2.6026   -6.9721 C.3       1 <0>        -0.1013
     16 C10         0.1713    1.2091   -7.2508 C.3       1 <0>        -0.1135
     17 C11         0.9113    0.7023   -6.0113 C.3       1 <0>        -0.0980
     18 C12        -1.1356    3.1094   -8.2116 C.3       1 <0>         0.1242
     19 N2         -0.1823    3.2912   -9.3091 N.am      1 <0>        -0.7198
     20 C13        -0.6111    3.7337  -10.5078 C.2       1 <0>         0.5135
     21 O4         -1.7861    3.9814  -10.6778 O.2       1 <0>        -0.5337
     22 C14         0.3694    3.9207  -11.6368 C.3       1 <0>         0.1497
     23 H3          1.1270    4.6474  -11.3434 H         1 <0>         0.1188
     24 C15         1.0415    2.5836  -11.9552 C.3       1 <0>        -0.1042
     25 C16        -0.0041    1.6008  -12.4859 C.3       1 <0>        -0.1497
     26 C17         2.1249    2.7968  -13.0144 C.3       1 <0>        -0.1393
     27 N3         -0.3391    4.4060  -12.8236 N.am      1 <0>        -0.6906
     28 C18         0.3231    5.1099  -13.7630 C.2       1 <0>         0.6557
     29 O5          1.5079    5.3420  -13.6255 O.2       1 <0>        -0.5613
     30 O6         -0.3280    5.5559  -14.8537 O.3       1 <0>        -0.3571
     31 C19         0.4362    6.2952  -15.8085 C.3       1 <0>         0.1352
     32 C20         1.5743    5.4205  -16.3381 C.3       1 <0>        -0.1862
     33 C21        -0.4672    6.7151  -16.9698 C.3       1 <0>        -0.1410
     34 C22         1.0196    7.5415  -15.1398 C.3       1 <0>        -0.1861
     35 O7          0.6932   -0.4774    1.1597 O.3       1 <0>        -0.5417
     36 H4          1.0039    1.9031    0.0027 H         1 <0>         0.0613
     37 H5         -0.5459    1.8868   -0.8726 H         1 <0>         0.0620
     38 H6         -0.5289    1.8773    0.9072 H         1 <0>         0.0531
     39 H7         -0.9341    0.2054   -2.3899 H         1 <0>         0.3902
     40 H8         -0.8749   -0.0512   -5.0719 H         1 <0>         0.0962
     41 H9         -1.3185    1.9740   -3.7116 H         1 <0>         0.0691
     42 H10         0.1885    2.7070   -4.3115 H         1 <0>         0.0683
     43 H11        -2.1818    1.8491   -6.0328 H         1 <0>         0.0695
     44 H12        -1.7705    3.5242   -5.5934 H         1 <0>         0.0678
     45 H13         0.4196    3.2850   -6.7312 H         1 <0>         0.0798
     46 H14        -0.6438    0.5267   -7.4916 H         1 <0>         0.0668
     47 H15         0.8632    1.2598   -8.0916 H         1 <0>         0.0627
     48 H16         1.7265    1.3846   -5.7704 H         1 <0>         0.0695
     49 H17         1.3152   -0.2905   -6.2098 H         1 <0>         0.0727
     50 H18        -1.8931    2.3827   -8.5050 H         1 <0>         0.0719
     51 H19        -1.6144    4.0620   -7.9847 H         1 <0>         0.0698
     52 H20         0.7574    3.0931   -9.1731 H         1 <0>         0.4041
     53 H21         1.4935    2.1793  -11.0495 H         1 <0>         0.0867
     54 H22        -0.4561    2.0051  -13.3916 H         1 <0>         0.0578
     55 H23         0.4747    0.6482  -12.7128 H         1 <0>         0.0624
     56 H24        -0.7759    1.4489  -11.7313 H         1 <0>         0.0558
     57 H25         1.6729    3.2011  -13.9201 H         1 <0>         0.0579
     58 H26         2.8698    3.4970  -12.6364 H         1 <0>         0.0644
     59 H27         2.6037    1.8443  -13.2413 H         1 <0>         0.0531
     60 H28        -1.2849    4.2207  -12.9334 H         1 <0>         0.4152
     61 H29         1.1586    4.5326  -16.8145 H         1 <0>         0.0586
     62 H30         2.1572    5.9844  -17.0664 H         1 <0>         0.0690
     63 H31         2.2178    5.1213  -15.5108 H         1 <0>         0.0897
     64 H32        -1.2780    7.3382  -16.5924 H         1 <0>         0.0665
     65 H33         0.1158    7.2790  -17.6980 H         1 <0>         0.0799
     66 H34        -0.8828    5.8272  -17.4462 H         1 <0>         0.0664
     67 H35         1.6632    7.2423  -14.3124 H         1 <0>         0.0888
     68 H36         1.6025    8.1054  -15.8680 H         1 <0>         0.0691
     69 H37         0.2088    8.1646  -14.7624 H         1 <0>         0.0587
     70 H38         0.2938   -0.2021    1.9962 H         1 <0>         0.3659
@<TRIPOS>BOND
     1    1    2 1
     2    1   36 1
     3    1   37 1
     4    1   38 1
     5    2    3 1
     6    2    4 1
     7    2   35 1
     8    4    5 1
     9    4    6 1
    10    4    9 1
    11    6    7 2
    12    6    8 1
    13    9   10 am
    14    9   39 1
    15   10   11 2
    16   10   12 1
    17   12   17 1
    18   12   13 1
    19   12   40 1
    20   13   14 1
    21   13   41 1
    22   13   42 1
    23   14   15 1
    24   14   43 1
    25   14   44 1
    26   15   16 1
    27   15   18 1
    28   15   45 1
    29   16   17 1
    30   16   46 1
    31   16   47 1
    32   17   48 1
    33   17   49 1
    34   18   19 1
    35   18   50 1
    36   18   51 1
    37   19   20 am
    38   19   52 1
    39   20   21 2
    40   20   22 1
    41   22   23 1
    42   22   24 1
    43   22   27 1
    44   24   25 1
    45   24   26 1
    46   24   53 1
    47   25   54 1
    48   25   55 1
    49   25   56 1
    50   26   57 1
    51   26   58 1
    52   26   59 1
    53   27   28 am
    54   27   60 1
    55   28   29 2
    56   28   30 1
    57   30   31 1
    58   31   32 1
    59   31   33 1
    60   31   34 1
    61   32   61 1
    62   32   62 1
    63   32   63 1
    64   33   64 1
    65   33   65 1
    66   33   66 1
    67   34   67 1
    68   34   68 1
    69   34   69 1
    70   35   70 1
@<TRIPOS>MOLECULE
ZINC52836278
   45    46     0     0     0
SMALL
USER_CHARGES

@<TRIPOS>ATOM
      1 C1         -0.0167    1.3786    0.0096 C.ar      1 <0>        -0.1475
      2 C2          1.1696    2.0892    0.0021 C.ar      1 <0>        -0.0985
      3 C3          2.3774    1.4193   -0.0134 C.ar      1 <0>        -0.1321
      4 C4          2.3995    0.0309   -0.0211 C.ar      1 <0>         0.1757
      5 C5          1.2065   -0.6797   -0.0130 C.ar      1 <0>        -0.1392
      6 C6          0.0021   -0.0041    0.0020 C.ar      1 <0>        -0.0961
      7 N1          3.6229   -0.6515   -0.0373 N.pl3     1 <0>        -0.2181
      8 C7          3.7600   -2.0056   -0.0513 C.2       1 <0>        -0.2610
      9 C8          5.0913   -2.2711   -0.0644 C.2       1 <0>         0.2436
     10 C9          5.7299   -1.0048   -0.0574 C.2       1 <0>        -0.1194
     11 N2          4.7783   -0.0901   -0.0466 N.2       1 <0>        -0.2726
     12 C10         7.1836   -0.7566   -0.0658 C.2       1 <0>         0.6164
     13 O1          7.9600   -1.6923   -0.0802 O.2       1 <0>        -0.5239
     14 N3          7.6515    0.5073   -0.0575 N.am      1 <0>        -0.5321
     15 N4          9.0325    0.7431   -0.0655 N.am      1 <0>        -0.5179
     16 C11         9.5004    2.0070   -0.0572 C.2       1 <0>         0.5061
     17 O2          8.7260    2.9402   -0.0428 O.2       1 <0>        -0.5452
     18 C12        10.9859    2.2606   -0.0658 C.3       1 <0>        -0.1285
     19 C13        11.2460    3.7683   -0.0537 C.3       1 <0>        -0.1006
     20 C14        12.7541    4.0258   -0.0624 C.3       1 <0>        -0.1310
     21 C15        13.0142    5.5334   -0.0504 C.3       1 <0>         0.1349
     22 N5         14.4583    5.7800   -0.0587 N.am      1 <0>        -0.7457
     23 C16        14.9262    7.0439   -0.0504 C.2       1 <0>         0.7028
     24 O3         14.1498    7.9795   -0.0360 O.2       1 <0>        -0.5939
     25 N6         16.2547    7.2707   -0.0581 N.am      1 <0>        -0.8696
     26 O4          5.6874   -3.4942   -0.0801 O.3       1 <0>        -0.7026
     27 H1         -0.9598    1.9047    0.0260 H         1 <0>         0.1209
     28 H2          1.1517    3.1690    0.0080 H         1 <0>         0.1255
     29 H3          3.3035    1.9748   -0.0200 H         1 <0>         0.1360
     30 H4          1.2205   -1.7596   -0.0193 H         1 <0>         0.1327
     31 H5         -0.9261   -0.5562    0.0079 H         1 <0>         0.1262
     32 H6          2.9606   -2.7318   -0.0519 H         1 <0>         0.1551
     33 H7          7.0321    1.2537   -0.0460 H         1 <0>         0.4321
     34 H8          9.6519   -0.0033   -0.0770 H         1 <0>         0.4289
     35 H9         11.4370    1.8070    0.8167 H         1 <0>         0.0985
     36 H10        11.4239    1.8235   -0.9631 H         1 <0>         0.0985
     37 H11        10.7948    4.2219   -0.9362 H         1 <0>         0.0767
     38 H12        10.8079    4.2054    0.8436 H         1 <0>         0.0767
     39 H13        13.2053    3.5722    0.8201 H         1 <0>         0.0714
     40 H14        13.1921    3.5887   -0.9598 H         1 <0>         0.0714
     41 H15        12.5630    5.9870   -0.9329 H         1 <0>         0.0691
     42 H16        12.5762    5.9705    0.8470 H         1 <0>         0.0691
     43 H17        15.0776    5.0336   -0.0702 H         1 <0>         0.3965
     44 H18        16.8741    6.5243   -0.0696 H         1 <0>         0.3963
     45 H19        16.5915    8.1803   -0.0522 H         1 <0>         0.4143
@<TRIPOS>BOND
     1    1    6 ar
     2    1    2 ar
     3    1   27 1
     4    2    3 ar
     5    2   28 1
     6    3    4 ar
     7    3   29 1
     8    4    5 ar
     9    4    7 1
    10    5    6 ar
    11    5   30 1
    12    6   31 1
    13    7   11 1
    14    7    8 1
    15    8    9 2
    16    8   32 1
    17    9   10 1
    18    9   26 1
    19   10   11 2
    20   10   12 1
    21   12   13 2
    22   12   14 am
    23   14   15 1
    24   14   33 1
    25   15   16 am
    26   15   34 1
    27   16   17 2
    28   16   18 1
    29   18   19 1
    30   18   35 1
    31   18   36 1
    32   19   20 1
    33   19   37 1
    34   19   38 1
    35   20   21 1
    36   20   39 1
    37   20   40 1
    38   21   22 1
    39   21   41 1
    40   21   42 1
    41   22   23 am
    42   22   43 1
    43   23   24 2
    44   23   25 am
    45   25   44 1
    46   25   45 1
@<TRIPOS>MOLECULE
ZINC02520224
   53    55     0     0     0
SMALL
USER_CHARGES
2-[4-[[[2-(phenylcarbamoyl)phenyl]carbamoylformyl]aminoiminomethyl]phenoxy]acetic acid
@<TRIPOS>ATOM
      1 C1          1.0782    1.4114   -3.9141 C.ar      1 <0>        -0.1328
      2 C2          2.3758    1.8822   -3.9959 C.ar      1 <0>        -0.0987
      3 C3          3.3982    1.2081   -3.3574 C.ar      1 <0>        -0.1185
      4 C4          3.1219    0.0559   -2.6328 C.ar      1 <0>         0.1425
      5 C5          1.8175   -0.4144   -2.5526 C.ar      1 <0>        -0.1451
      6 C6          0.7996    0.2647   -3.1931 C.ar      1 <0>        -0.1013
      7 N1          4.1550   -0.6296   -1.9858 N.am      1 <0>        -0.6657
      8 C7          5.2005    0.0517   -1.4767 C.2       1 <0>         0.5643
      9 O1          5.2010    1.2676   -1.4954 O.2       1 <0>        -0.5157
     10 C8          6.3440   -0.6774   -0.8970 C.ar      1 <0>        -0.1729
     11 C9          6.4058   -2.0702   -0.9830 C.ar      1 <0>        -0.0624
     12 C10         7.4796   -2.7453   -0.4440 C.ar      1 <0>        -0.1422
     13 C11         8.4949   -2.0504    0.1935 C.ar      1 <0>        -0.0632
     14 C12         8.4454   -0.6745    0.2911 C.ar      1 <0>        -0.1385
     15 C13         7.3737    0.0234   -0.2508 C.ar      1 <0>         0.2132
     16 N2          7.3212    1.4101   -0.1529 N.am      1 <0>        -0.6286
     17 C14         8.4614    2.1229   -0.0617 C.2       1 <0>         0.5189
     18 O2          9.5352    1.5658   -0.1627 O.2       1 <0>        -0.4984
     19 C15         8.4040    3.5957    0.1631 C.2       1 <0>         0.5263
     20 O3          7.3296    4.1531    0.2642 O.2       1 <0>        -0.4701
     21 N3          9.5442    4.3084    0.2543 N.am      1 <0>        -0.5578
     22 N4          9.4902    5.6924    0.4656 N.2       1 <0>        -0.2509
     23 C16        10.5894    6.3795    0.5534 C.2       1 <0>         0.1492
     24 C17        10.5326    7.8349    0.7756 C.ar      1 <0>        -0.1290
     25 C18         9.2971    8.4795    0.8865 C.ar      1 <0>        -0.0268
     26 C19         9.2491    9.8400    1.0986 C.ar      1 <0>        -0.2252
     27 C20        10.4257   10.5725    1.1927 C.ar      1 <0>         0.1674
     28 C21        11.6558    9.9371    1.0779 C.ar      1 <0>        -0.1669
     29 C22        11.7139    8.5763    0.8705 C.ar      1 <0>        -0.0420
     30 O4         10.3734   11.9143    1.3970 O.3       1 <0>        -0.2825
     31 C23         9.0762   12.5039    1.5058 C.3       1 <0>         0.0148
     32 C24         9.2159   13.9877    1.7289 C.2       1 <0>         0.4692
     33 O5         10.3136   14.4889    1.7886 O.co2     1 <0>        -0.6136
     34 H1          0.2811    1.9379   -4.4181 H         1 <0>         0.1242
     35 H2          2.5900    2.7781   -4.5598 H         1 <0>         0.1273
     36 H3          4.4115    1.5762   -3.4220 H         1 <0>         0.1349
     37 H4          1.5994   -1.3102   -1.9903 H         1 <0>         0.1251
     38 H5         -0.2149   -0.1004   -3.1311 H         1 <0>         0.1266
     39 H6          4.1190   -1.5955   -1.9034 H         1 <0>         0.4111
     40 H7          5.6150   -2.6171   -1.4749 H         1 <0>         0.1315
     41 H8          7.5277   -3.8219   -0.5147 H         1 <0>         0.1341
     42 H9          9.3299   -2.5887    0.6170 H         1 <0>         0.1359
     43 H10         9.2406   -0.1401    0.7895 H         1 <0>         0.1521
     44 H11         6.4640    1.8640   -0.1502 H         1 <0>         0.4376
     45 H12        10.4022    3.8633    0.1736 H         1 <0>         0.3955
     46 H13        11.5447    5.8838    0.4636 H         1 <0>         0.1214
     47 H14         8.3818    7.9115    0.8094 H         1 <0>         0.1347
     48 H15         8.2951   10.3384    1.1881 H         1 <0>         0.1349
     49 H16        12.5679   10.5108    1.1510 H         1 <0>         0.1368
     50 H17        12.6706    8.0832    0.7811 H         1 <0>         0.1321
     51 H18         8.5178   12.3256    0.5868 H         1 <0>         0.0702
     52 H19         8.5441   12.0586    2.3465 H         1 <0>         0.0702
     53 O6          8.1208   14.7525    1.8613 O.co2     1 <0>        -0.7533
@<TRIPOS>BOND
     1    1    6 ar
     2    1    2 ar
     3    1   34 1
     4    2    3 ar
     5    2   35 1
     6    3    4 ar
     7    3   36 1
     8    4    5 ar
     9    4    7 1
    10    5    6 ar
    11    5   37 1
    12    6   38 1
    13    7    8 am
    14    7   39 1
    15    8    9 2
    16    8   10 1
    17   10   15 ar
    18   10   11 ar
    19   11   12 ar
    20   11   40 1
    21   12   13 ar
    22   12   41 1
    23   13   14 ar
    24   13   42 1
    25   14   15 ar
    26   14   43 1
    27   15   16 1
    28   16   17 am
    29   16   44 1
    30   17   18 2
    31   17   19 1
    32   19   20 2
    33   19   21 am
    34   21   22 1
    35   21   45 1
    36   22   23 2
    37   23   24 1
    38   23   46 1
    39   24   29 ar
    40   24   25 ar
    41   25   26 ar
    42   25   47 1
    43   26   27 ar
    44   26   48 1
    45   27   28 ar
    46   27   30 1
    47   28   29 ar
    48   28   49 1
    49   29   50 1
    50   30   31 1
    51   31   32 1
    52   31   51 1
    53   31   52 1
    54   32   33 2
    55   32   53 1
@<TRIPOS>MOLECULE
ZINC13054038
   39    40     0     0     0
SMALL
USER_CHARGES
3-nitro-4-[2-oxo-2-[(3-sulfamoylphenyl)amino]ethoxy]benzoic acid
@<TRIPOS>ATOM
      1 C1          6.6805   -4.4100   -0.9926 C.ar      1 <0>        -0.1204
      2 C2          5.4019   -3.9017   -0.8702 C.ar      1 <0>        -0.0859
      3 C3          5.1896   -2.7216   -0.1700 C.ar      1 <0>         0.1298
      4 C4          6.2629   -2.0618    0.4147 C.ar      1 <0>        -0.0247
      5 C5          7.5380   -2.5780    0.2933 C.ar      1 <0>        -0.6579
      6 C6          7.7469   -3.7506   -0.4097 C.ar      1 <0>        -0.0333
      7 S1          8.9001   -1.7421    1.0351 S.o2      1 <0>         2.6984
      8 O1         10.0599   -2.1369    0.3152 O.2       1 <0>        -0.9632
      9 O2          8.5154   -0.3811    1.1726 O.2       1 <0>        -0.9464
     10 N1          9.0675   -2.3439    2.5688 N.pl3     1 <0>        -1.2480
     11 N2          3.8964   -2.2012   -0.0488 N.am      1 <0>        -0.6744
     12 C7          3.7048   -0.8672   -0.0411 C.2       1 <0>         0.5105
     13 O3          4.6582   -0.1175   -0.0546 O.2       1 <0>        -0.4681
     14 C8          2.3061   -0.3070   -0.0157 C.3       1 <0>         0.0372
     15 O4          2.3648    1.1208   -0.0119 O.3       1 <0>        -0.2598
     16 C9          1.1822    1.7860    0.0103 C.ar      1 <0>         0.1833
     17 C10        -0.0127    1.0753    0.0279 C.ar      1 <0>        -0.2300
     18 C11        -1.2146    1.7462    0.0442 C.ar      1 <0>         0.0129
     19 C12        -1.2325    3.1441    0.0545 C.ar      1 <0>        -0.1424
     20 C13        -0.0290    3.8547    0.0367 C.ar      1 <0>         0.0109
     21 C14         1.1688    3.1758    0.0147 C.ar      1 <0>        -0.0851
     22 N3          2.4439    3.9273   -0.0037 N.pl3     1 <0>         0.0365
     23 O5          2.4332    5.1452    0.0002 O.2       1 <0>        -0.1850
     24 O6          3.5039    3.3276   -0.0227 O.3       1 <0>        -0.1366
     25 C15        -2.5177    3.8670    0.0781 C.2       1 <0>         0.4943
     26 O7         -2.5314    5.0819    0.0820 O.co2     1 <0>        -0.6177
     27 H1          6.8469   -5.3256   -1.5406 H         1 <0>         0.1393
     28 H2          4.5688   -4.4196   -1.3220 H         1 <0>         0.1370
     29 H3          6.1005   -1.1459    0.9635 H         1 <0>         0.1614
     30 H4          8.7450   -4.1522   -0.5033 H         1 <0>         0.1441
     31 H5          9.9429   -2.3731    2.9855 H         1 <0>         0.4210
     32 H6          8.2901   -2.6672    3.0505 H         1 <0>         0.4168
     33 H7          3.1378   -2.8006    0.0296 H         1 <0>         0.4153
     34 H8          1.7927   -0.6519    0.8819 H         1 <0>         0.1037
     35 H9          1.7628   -0.6459   -0.8978 H         1 <0>         0.1037
     36 H10         0.0021   -0.0046    0.0244 H         1 <0>         0.1464
     37 H11        -2.1424    1.1934    0.0534 H         1 <0>         0.1553
     38 H12        -0.0385    4.9347    0.0398 H         1 <0>         0.1660
     39 O8         -3.6768    3.1801    0.0952 O.co2     1 <0>        -0.7448
@<TRIPOS>BOND
     1    1    6 ar
     2    1    2 ar
     3    1   27 1
     4    2    3 ar
     5    2   28 1
     6    3    4 ar
     7    3   11 1
     8    4    5 ar
     9    4   29 1
    10    5    6 ar
    11    5    7 1
    12    6   30 1
    13    7    8 2
    14    7    9 2
    15    7   10 1
    16   10   31 1
    17   10   32 1
    18   11   12 am
    19   11   33 1
    20   12   13 2
    21   12   14 1
    22   14   15 1
    23   14   34 1
    24   14   35 1
    25   15   16 1
    26   16   21 ar
    27   16   17 ar
    28   17   18 ar
    29   17   36 1
    30   18   19 ar
    31   18   37 1
    32   19   20 ar
    33   19   25 1
    34   20   21 ar
    35   20   38 1
    36   21   22 1
    37   22   23 2
    38   22   24 1
    39   25   26 2
    40   25   39 1
@<TRIPOS>MOLECULE
ZINC21084249
   54    56     0     0     0
SMALL
USER_CHARGES
3-[[5-[(N'E)-N'-[(4-hydroxy-3-methoxy-5-nitro-phenyl)methylene]hydrazino]-4H-1,2,4-triazol-3-yl]sulfanyl]-N-(2-methoxyphenyl)propanamide
@<TRIPOS>ATOM
      1 C1          9.5235    7.9886   -1.5131 C.3       1 <0>         0.0271
      2 O1          8.5454    7.0699   -1.0219 O.3       1 <0>        -0.3210
      3 C2          9.0059    5.9286   -0.4436 C.ar      1 <0>         0.0929
      4 C3         10.3689    5.6983   -0.3505 C.ar      1 <0>        -0.1889
      5 C4         10.8355    4.5380    0.2386 C.ar      1 <0>        -0.1028
      6 C5          9.9452    3.6044    0.7363 C.ar      1 <0>        -0.1321
      7 C6          8.5841    3.8288    0.6517 C.ar      1 <0>        -0.0998
      8 C7          8.1084    4.9884    0.0572 C.ar      1 <0>         0.1299
      9 N1          6.7287    5.2159   -0.0342 N.am      1 <0>        -0.6765
     10 C8          5.8723    4.1753   -0.0276 C.2       1 <0>         0.5199
     11 O2          6.2977    3.0395   -0.0440 O.2       1 <0>        -0.5156
     12 C9          4.3860    4.4228   -0.0000 C.3       1 <0>        -0.1257
     13 C10         3.6459    3.0837    0.0022 C.3       1 <0>        -0.1069
     14 S1          1.8608    3.3810    0.0353 S.3       1 <0>         0.0524
     15 C11         1.2905    1.7668    0.0324 C.2       1 <0>         0.1470
     16 N2         -0.0170    1.3707    0.0518 N.2       1 <0>        -0.5225
     17 C12         0.0012   -0.0025    0.0406 C.2       1 <0>         0.4722
     18 N3          1.2896   -0.3849    0.0153 N.pl3     1 <0>        -0.4090
     19 N4          2.0476    0.6539    0.0105 N.2       1 <0>        -0.3194
     20 N5         -1.0660   -0.8102    0.0533 N.pl3     1 <0>        -0.4907
     21 N6         -0.9063   -2.0902    0.0403 N.2       1 <0>        -0.3052
     22 C13        -1.9570   -2.8855    0.0528 C.2       1 <0>         0.1368
     23 C14        -1.7817   -4.2911    0.0385 C.ar      1 <0>        -0.1617
     24 C15        -0.4859   -4.8413    0.0110 C.ar      1 <0>         0.0227
     25 C16        -0.3186   -6.1947   -0.0028 C.ar      1 <0>        -0.1389
     26 C17        -1.4255   -7.0405    0.0103 C.ar      1 <0>         0.3230
     27 C18        -2.7202   -6.5077    0.0376 C.ar      1 <0>         0.0211
     28 C19        -2.9013   -5.1425    0.0576 C.ar      1 <0>        -0.1217
     29 O3         -3.7972   -7.3372    0.0498 O.3       1 <0>        -0.2965
     30 C20        -5.0878   -6.7244    0.0778 C.3       1 <0>         0.0243
     31 O4         -1.2486   -8.3844   -0.0041 O.3       1 <0>        -0.5792
     32 N7          1.0458   -6.7678   -0.0313 N.pl3     1 <0>         0.0315
     33 O5          2.0945   -5.9712   -0.0432 O.2       1 <0>        -0.2910
     34 O6          1.2110   -8.0743   -0.0446 O.3       1 <0>        -0.1887
     35 H1          9.0186    8.8615   -1.9525 H         1 <0>         0.1018
     36 H2         10.1372    7.4949   -2.2810 H         1 <0>         0.0560
     37 H3         10.1676    8.3165   -0.6839 H         1 <0>         0.0559
     38 H4         11.0670    6.4256   -0.7379 H         1 <0>         0.1300
     39 H5         11.8984    4.3603    0.3106 H         1 <0>         0.1248
     40 H6         10.3143    2.6997    1.1963 H         1 <0>         0.1277
     41 H7          7.8910    3.0999    1.0450 H         1 <0>         0.1528
     42 H8          6.3447    6.2438   -0.1113 H         1 <0>         0.4398
     43 H9          4.1251    4.9874    0.9073 H         1 <0>         0.1098
     44 H10         4.0941    5.0016   -0.8887 H         1 <0>         0.1088
     45 H11         3.9068    2.5191   -0.9051 H         1 <0>         0.1028
     46 H12         3.9378    2.5049    0.8909 H         1 <0>         0.1028
     47 H13        -2.0792   -0.3825    0.0748 H         1 <0>         0.4200
     48 H14        -2.9702   -2.4579    0.0743 H         1 <0>         0.1160
     49 H15         0.3763   -4.1910    0.0004 H         1 <0>         0.1367
     50 H16        -3.8981   -4.7277    0.0833 H         1 <0>         0.1266
     51 H17        -5.8638   -7.5040    0.0851 H         1 <0>         0.0938
     52 H18        -5.2125   -6.0913   -0.8130 H         1 <0>         0.0491
     53 H19        -5.1806   -6.1062    0.9829 H         1 <0>         0.0491
     54 H20         1.5457   -1.4546    0.0023 H         1 <0>         0.4893
@<TRIPOS>BOND
     1    1    2 1
     2    1   35 1
     3    1   36 1
     4    1   37 1
     5    2    3 1
     6    3    8 ar
     7    3    4 ar
     8    4    5 ar
     9    4   38 1
    10    5    6 ar
    11    5   39 1
    12    6    7 ar
    13    6   40 1
    14    7    8 ar
    15    7   41 1
    16    8    9 1
    17    9   10 am
    18    9   42 1
    19   10   11 2
    20   10   12 1
    21   12   13 1
    22   12   43 1
    23   12   44 1
    24   13   14 1
    25   13   45 1
    26   13   46 1
    27   14   15 1
    28   15   19 2
    29   15   16 1
    30   16   17 2
    31   17   18 1
    32   17   20 1
    33   18   19 1
    34   18   54 1
    35   20   21 1
    36   20   47 1
    37   21   22 2
    38   22   23 1
    39   22   48 1
    40   23   28 ar
    41   23   24 ar
    42   24   25 ar
    43   24   49 1
    44   25   26 ar
    45   25   32 1
    46   26   27 ar
    47   26   31 1
    48   27   28 ar
    49   27   29 1
    50   28   50 1
    51   29   30 1
    52   30   51 1
    53   30   52 1
    54   30   53 1
    55   32   33 2
    56   32   34 1
@<TRIPOS>MOLECULE
ZINC40125866
   51    53     0     0     0
SMALL
USER_CHARGES

@<TRIPOS>ATOM
      1 C1         -4.2836   -0.9372   -0.9191 C.3       1 <0>        -0.1490
      2 C2         -3.0532   -1.8060   -0.6504 C.3       1 <0>        -0.1246
      3 C3         -2.5379   -2.3825   -1.9706 C.3       1 <0>         0.0593
      4 O1         -1.3887   -3.1940   -1.7197 O.3       1 <0>        -0.3171
      5 C4         -0.8042   -3.7852   -2.7948 C.ar      1 <0>         0.1115
      6 C5         -1.3245   -3.5826   -4.0665 C.ar      1 <0>        -0.1955
      7 C6         -0.7345   -4.1818   -5.1642 C.ar      1 <0>        -0.0986
      8 C7          0.3756   -4.9854   -5.0034 C.ar      1 <0>        -0.1029
      9 C8          0.9063   -5.1948   -3.7288 C.ar      1 <0>        -0.0966
     10 C9          0.3127   -4.5845   -2.6224 C.ar      1 <0>        -0.1061
     11 C10         2.0958   -6.0553   -3.5523 C.2       1 <0>         0.5047
     12 O2          2.5982   -6.1803   -2.4514 O.2       1 <0>        -0.4673
     13 C11         2.6696   -6.7577   -4.7039 C.2       1 <0>        -0.5036
     14 C12         2.6893   -8.0961   -4.9053 C.2       1 <0>         0.2623
     15 C13         3.3617   -8.3838   -6.1900 C.2       1 <0>         0.5123
     16 O3          3.5366   -9.4936   -6.6523 O.2       1 <0>        -0.5388
     17 N1          3.7510   -7.2348   -6.7718 N.am      1 <0>        -0.7248
     18 C14         3.3471   -6.1270   -5.8980 C.3       1 <0>         0.2649
     19 H1          2.6515   -5.4697   -6.4197 H         1 <0>         0.0733
     20 C15         4.5609   -5.3513   -5.4551 C.ar      1 <0>        -0.1032
     21 C16         5.7652   -6.0035   -5.2651 C.ar      1 <0>        -0.0576
     22 C17         6.8792   -5.2948   -4.8587 C.ar      1 <0>        -0.1429
     23 C18         6.7890   -3.9275   -4.6418 C.ar      1 <0>         0.1126
     24 C19         5.5796   -3.2754   -4.8336 C.ar      1 <0>        -0.2076
     25 C20         4.4697   -3.9878   -5.2450 C.ar      1 <0>        -0.0755
     26 O4          7.8833   -3.2281   -4.2416 O.3       1 <0>        -0.2935
     27 C21         7.7168   -1.8236   -4.0374 C.3       1 <0>         0.0405
     28 C22         9.0267   -1.2209   -3.5995 C.2       1 <0>         0.5198
     29 O5         10.0064   -1.9247   -3.4745 O.2       1 <0>        -0.5178
     30 N2          9.1095    0.1004   -3.3467 N.am      1 <0>        -0.8526
     31 O6          2.1761   -9.0231   -4.0643 O.3       1 <0>        -0.6539
     32 H2         -4.0134   -0.1222   -1.5906 H         1 <0>         0.0565
     33 H3         -5.0633   -1.5440   -1.3796 H         1 <0>         0.0571
     34 H4         -4.6508   -0.5264    0.0214 H         1 <0>         0.0628
     35 H5         -2.2735   -1.1992   -0.1900 H         1 <0>         0.0728
     36 H6         -3.3235   -2.6209    0.0211 H         1 <0>         0.0736
     37 H7         -3.3176   -2.9893   -2.4311 H         1 <0>         0.0599
     38 H8         -2.2676   -1.5676   -2.6421 H         1 <0>         0.0593
     39 H9         -2.1934   -2.9549   -4.1985 H         1 <0>         0.1234
     40 H10        -1.1440   -4.0206   -6.1504 H         1 <0>         0.1251
     41 H11         0.8335   -5.4525   -5.8628 H         1 <0>         0.1367
     42 H12         0.7208   -4.7393   -1.6345 H         1 <0>         0.1367
     43 H13         4.2137   -7.1529   -7.6204 H         1 <0>         0.4066
     44 H14         5.8349   -7.0679   -5.4341 H         1 <0>         0.1273
     45 H15         7.8195   -5.8047   -4.7097 H         1 <0>         0.1283
     46 H16         5.5068   -2.2111   -4.6653 H         1 <0>         0.1224
     47 H17         3.5291   -3.4799   -5.3987 H         1 <0>         0.1238
     48 H18         7.3952   -1.3568   -4.9684 H         1 <0>         0.0923
     49 H19         6.9638   -1.6552   -3.2675 H         1 <0>         0.0935
     50 H20         8.3259    0.6633   -3.4467 H         1 <0>         0.4029
     51 H21         9.9526    0.4884   -3.0648 H         1 <0>         0.4072
@<TRIPOS>BOND
     1    1    2 1
     2    1   32 1
     3    1   33 1
     4    1   34 1
     5    2    3 1
     6    2   35 1
     7    2   36 1
     8    3    4 1
     9    3   37 1
    10    3   38 1
    11    4    5 1
    12    5   10 ar
    13    5    6 ar
    14    6    7 ar
    15    6   39 1
    16    7    8 ar
    17    7   40 1
    18    8    9 ar
    19    8   41 1
    20    9   10 ar
    21    9   11 1
    22   10   42 1
    23   11   12 2
    24   11   13 1
    25   13   18 1
    26   13   14 2
    27   14   15 1
    28   14   31 1
    29   15   16 2
    30   15   17 am
    31   17   18 1
    32   17   43 1
    33   18   19 1
    34   18   20 1
    35   20   25 ar
    36   20   21 ar
    37   21   22 ar
    38   21   44 1
    39   22   23 ar
    40   22   45 1
    41   23   24 ar
    42   23   26 1
    43   24   25 ar
    44   24   46 1
    45   25   47 1
    46   26   27 1
    47   27   28 1
    48   27   48 1
    49   27   49 1
    50   28   29 2
    51   28   30 am
    52   30   50 1
    53   30   51 1
@<TRIPOS>MOLECULE
ZINC59994353
   49    50     0     0     0
SMALL
USER_CHARGES

@<TRIPOS>ATOM
      1 C1         -0.0187    1.5258    0.0104 C.3       1 <0>        -0.1519
      2 C2          0.0021   -0.0041    0.0020 C.3       1 <0>         0.0498
      3 O1         -1.3386   -0.4987    0.0122 O.3       1 <0>        -0.3007
      4 C3         -1.4982   -1.8473    0.0064 C.ar      1 <0>         0.1314
      5 C4         -0.3848   -2.6765   -0.0029 C.ar      1 <0>        -0.1811
      6 C5         -0.5415   -4.0455   -0.0092 C.ar      1 <0>        -0.0768
      7 C6         -1.8229   -4.6020   -0.0062 C.ar      1 <0>        -0.1232
      8 C7         -2.9437   -3.7675    0.0037 C.ar      1 <0>        -0.1093
      9 C8         -2.7797   -2.3960    0.0157 C.ar      1 <0>         0.0915
     10 O2         -3.8683   -1.5810    0.0305 O.3       1 <0>        -0.3047
     11 C9         -5.1507   -2.2115    0.0394 C.3       1 <0>         0.0224
     12 C10        -1.9925   -6.0682   -0.0139 C.2       1 <0>         0.5596
     13 O3         -3.1083   -6.5512   -0.0112 O.2       1 <0>        -0.5352
     14 N1         -0.9105   -6.8717   -0.0238 N.am      1 <0>        -0.5136
     15 N2         -1.0714   -8.2634   -0.0312 N.am      1 <0>        -0.5243
     16 C11         0.0106   -9.0669   -0.0411 C.2       1 <0>         0.5718
     17 O4          1.1265   -8.5840   -0.0438 O.2       1 <0>        -0.5338
     18 C12        -0.1589  -10.5326   -0.0488 C.ar      1 <0>        -0.1205
     19 C13        -1.4395  -11.0909   -0.0516 C.ar      1 <0>        -0.1399
     20 C14        -1.5907  -12.4667   -0.0588 C.ar      1 <0>         0.2715
     21 C15        -0.4712  -13.2926   -0.0628 C.ar      1 <0>        -0.2084
     22 C16         0.7967  -12.7475   -0.0596 C.ar      1 <0>        -0.0974
     23 C17         0.9634  -11.3708   -0.0592 C.ar      1 <0>         0.0574
     24 O5          2.2114  -10.8366   -0.0622 O.3       1 <0>        -0.4814
     25 N3         -2.8727  -13.0283   -0.0615 N.2       1 <0>        -1.0962
     26 S1         -3.0557  -14.6741   -0.0701 S.o2      1 <0>         2.5265
     27 O6         -2.4968  -15.0946   -1.3071 O.2       1 <0>        -1.0290
     28 O7         -2.4964  -15.1076    1.1622 O.2       1 <0>        -1.0297
     29 C18        -4.8496  -14.9437   -0.0713 C.3       1 <0>        -0.6360
     30 H1          1.0039    1.9031    0.0027 H         1 <0>         0.0788
     31 H2         -0.5459    1.8868   -0.8726 H         1 <0>         0.0668
     32 H3         -0.5289    1.8773    0.9072 H         1 <0>         0.0667
     33 H4          0.5123   -0.3556   -0.8948 H         1 <0>         0.0648
     34 H5          0.5293   -0.3651    0.8851 H         1 <0>         0.0647
     35 H6          0.6064   -2.2477   -0.0056 H         1 <0>         0.1436
     36 H7          0.3264   -4.6883   -0.0168 H         1 <0>         0.1346
     37 H8         -3.9359   -4.1940    0.0061 H         1 <0>         0.1525
     38 H9         -5.2415   -2.8377    0.9269 H         1 <0>         0.0585
     39 H10        -5.9301   -1.4496    0.0510 H         1 <0>         0.1021
     40 H11        -5.2585   -2.8281   -0.8529 H         1 <0>         0.0586
     41 H12        -0.0203   -6.4864   -0.0260 H         1 <0>         0.4289
     42 H13        -1.9616   -8.6487   -0.0290 H         1 <0>         0.4355
     43 H14        -2.3093  -10.4507   -0.0478 H         1 <0>         0.1206
     44 H15        -0.5949  -14.3655   -0.0680 H         1 <0>         0.1118
     45 H16         1.6612  -13.3948   -0.0621 H         1 <0>         0.1185
     46 H17         2.5773  -10.6870    0.8203 H         1 <0>         0.3699
     47 H18        -5.2853  -14.4849   -0.9589 H         1 <0>         0.1161
     48 H19        -5.0561  -16.0139   -0.0769 H         1 <0>         0.1020
     49 H20        -5.2851  -14.4942    0.8211 H         1 <0>         0.1160
@<TRIPOS>BOND
     1    1    2 1
     2    1   30 1
     3    1   31 1
     4    1   32 1
     5    2    3 1
     6    2   33 1
     7    2   34 1
     8    3    4 1
     9    4    9 ar
    10    4    5 ar
    11    5    6 ar
    12    5   35 1
    13    6    7 ar
    14    6   36 1
    15    7    8 ar
    16    7   12 1
    17    8    9 ar
    18    8   37 1
    19    9   10 1
    20   10   11 1
    21   11   38 1
    22   11   39 1
    23   11   40 1
    24   12   13 2
    25   12   14 am
    26   14   15 1
    27   14   41 1
    28   15   16 am
    29   15   42 1
    30   16   17 2
    31   16   18 1
    32   18   23 ar
    33   18   19 ar
    34   19   20 ar
    35   19   43 1
    36   20   21 ar
    37   20   25 1
    38   21   22 ar
    39   21   44 1
    40   22   23 ar
    41   22   45 1
    42   23   24 1
    43   24   46 1
    44   25   26 1
    45   26   27 2
    46   26   28 2
    47   26   29 1
    48   29   47 1
    49   29   48 1
    50   29   49 1
@<TRIPOS>MOLECULE
ZINC03830434
   55    58     0     0     0
SMALL
USER_CHARGES
8-[2-[2-(aminomethyl)phenyl]acetyl]amino-4-[[1-(carboxymethyl)tetrazol-5-yl]sulfanylmethyl]-7-oxo-2-thia-6-azabicyclo[4.2.0]oct-4-ene-5-carboxylic acid
@<TRIPOS>ATOM
      1 C1         -0.3139   -7.7553   -2.5649 C.ar      1 <0>        -0.0823
      2 C2          0.8132   -8.2917   -3.1594 C.ar      1 <0>        -0.1155
      3 C3          2.0364   -7.6652   -3.0128 C.ar      1 <0>        -0.0865
      4 C4          2.1322   -6.4999   -2.2750 C.ar      1 <0>        -0.1492
      5 C5          1.0063   -5.9662   -1.6767 C.ar      1 <0>        -0.0405
      6 C6         -0.2174   -6.5925   -1.8240 C.ar      1 <0>        -0.0989
      7 C7          1.1115   -4.6984   -0.8689 C.3       1 <0>        -0.1102
      8 C8          1.0178   -3.5079   -1.7881 C.2       1 <0>         0.5101
      9 O1          0.8793   -3.6727   -2.9816 O.2       1 <0>        -0.5153
     10 N1          1.0880   -2.2600   -1.2838 N.am      1 <0>        -0.6934
     11 C9          0.9969   -1.1026   -2.1773 C.3       1 <0>         0.1215
     12 H1          0.4818   -1.3277   -3.1112 H         1 <0>         0.1492
     13 C10         0.4939    0.1627   -1.4906 C.3       1 <0>         0.1266
     14 H2         -0.2405    0.7418   -2.0503 H         1 <0>         0.1490
     15 N2          1.9164    0.6259   -1.5620 N.am      1 <0>        -0.5557
     16 C11         2.3154   -0.3725   -2.3689 C.2       1 <0>         0.5329
     17 O2          3.3263   -0.6000   -2.9994 O.2       1 <0>        -0.4451
     18 C12         2.4933    1.6681   -0.8176 C.2       1 <0>         0.1355
     19 C13         1.9210    2.0848    0.3017 C.2       1 <0>        -0.1642
     20 C14         0.6413    1.6225    0.9186 C.3       1 <0>        -0.0191
     21 S1          0.1299   -0.0065    0.2893 S.3       1 <0>        -0.2446
     22 C15         2.6561    3.1667    1.0503 C.3       1 <0>        -0.0640
     23 S2          1.8543    4.7610    0.7482 S.3       1 <0>         0.0567
     24 C16         2.8883    5.8113    1.7137 C.2       1 <0>         0.2327
     25 N3          3.9290    5.4412    2.4281 N.2       1 <0>        -0.3471
     26 N4          4.4618    6.4567    3.0062 N.2       1 <0>        -0.0580
     27 N5          3.8085    7.5300    2.7183 N.2       1 <0>        -0.0937
     28 N6          2.7579    7.1505    1.8647 N.pl3     1 <0>        -0.3252
     29 C17         1.7396    8.0180    1.2674 C.3       1 <0>         0.0703
     30 C18         0.5512    8.1065    2.1899 C.2       1 <0>         0.4620
     31 O3          0.5545    7.5066    3.2387 O.co2     1 <0>        -0.6141
     32 C19         3.7409    2.2999   -1.2837 C.2       1 <0>         0.4875
     33 O4          4.6255    1.6179   -1.7617 O.co2     1 <0>        -0.6068
     34 C20         3.4650   -5.8138   -2.1195 C.3       1 <0>         0.0431
     35 H3         -1.2698   -8.2447   -2.6797 H         1 <0>         0.1350
     36 H4          0.7378   -9.2002   -3.7386 H         1 <0>         0.1339
     37 H5          2.9168   -8.0840   -3.4775 H         1 <0>         0.1327
     38 H6         -1.0979   -6.1733   -1.3599 H         1 <0>         0.1357
     39 H7          2.0675   -4.6792   -0.3457 H         1 <0>         0.0848
     40 H8          0.2993   -4.6617   -0.1429 H         1 <0>         0.1252
     41 H9          1.1988   -2.1282   -0.3292 H         1 <0>         0.4165
     42 H10        -0.1409    2.3489    0.6984 H         1 <0>         0.1085
     43 H11         0.7710    1.5603    1.9990 H         1 <0>         0.1264
     44 H12         2.6373    2.9470    2.1177 H         1 <0>         0.0867
     45 H13         3.6895    3.2087    0.7061 H         1 <0>         0.1407
     46 H14         2.1553    9.0138    1.1138 H         1 <0>         0.1116
     47 H15         1.4257    7.6035    0.3094 H         1 <0>         0.1102
     48 H16         4.1377   -6.1433   -2.9113 H         1 <0>         0.1433
     49 H17         3.3278   -4.7345   -2.1850 H         1 <0>         0.1407
     50 H18         4.9370   -5.7076   -0.6842 H         1 <0>         0.4424
     51 H19         3.4084   -5.9188   -0.0642 H         1 <0>         0.4309
     52 O5         -0.5110    8.8519    1.8465 O.co2     1 <0>        -0.7507
     53 O6          3.9002    3.6342   -1.1795 O.co2     1 <0>        -0.6937
     54 N7          4.0446   -6.1808   -0.8154 N.4       1 <0>        -0.6456
     55 H20         4.1963   -7.1959   -0.7872 H         1 <0>         0.4375
@<TRIPOS>BOND
     1    1    6 ar
     2    1    2 ar
     3    1   35 1
     4    2    3 ar
     5    2   36 1
     6    3    4 ar
     7    3   37 1
     8    4    5 ar
     9    4   34 1
    10    5    6 ar
    11    5    7 1
    12    6   38 1
    13    7    8 1
    14    7   39 1
    15    7   40 1
    16    8    9 2
    17    8   10 am
    18   10   11 1
    19   10   41 1
    20   11   12 1
    21   11   16 1
    22   11   13 1
    23   13   14 1
    24   13   21 1
    25   13   15 1
    26   15   16 am
    27   15   18 1
    28   16   17 2
    29   18   19 2
    30   18   32 1
    31   19   20 1
    32   19   22 1
    33   20   21 1
    34   20   42 1
    35   20   43 1
    36   22   23 1
    37   22   44 1
    38   22   45 1
    39   23   24 1
    40   24   28 1
    41   24   25 2
    42   25   26 1
    43   26   27 2
    44   27   28 1
    45   28   29 1
    46   29   30 1
    47   29   46 1
    48   29   47 1
    49   30   31 2
    50   30   52 1
    51   32   33 2
    52   32   53 1
    53   34   48 1
    54   34   49 1
    55   34   54 1
    56   50   54 1
    57   51   54 1
    58   54   55 1
@<TRIPOS>MOLECULE
ZINC20523365
   46    48     0     0     0
SMALL
USER_CHARGES
1-phenyl-3-[[4-(pyrimidin-2-ylsulfamoyl)phenyl]carbamothioylamino]thiourea
@<TRIPOS>ATOM
      1 C1          8.4293    9.2572   10.7721 C.ar      1 <0>        -0.1129
      2 C2          7.6470    8.1200   10.8574 C.ar      1 <0>        -0.1101
      3 C3          7.4222    7.3489    9.7339 C.ar      1 <0>        -0.0749
      4 C4          7.9826    7.7166    8.5176 C.ar      1 <0>         0.1265
      5 C5          8.7721    8.8563    8.4364 C.ar      1 <0>        -0.1216
      6 C6          8.9888    9.6260    9.5625 C.ar      1 <0>        -0.1137
      7 N1          7.7572    6.9375    7.3778 N.pl3     1 <0>        -0.6384
      8 C7          6.5290    6.4387    7.1345 C.2       1 <0>         0.5654
      9 S1          5.2135    6.8748    8.1397 S.2       1 <0>        -0.5694
     10 N2          6.3363    5.5967    6.1000 N.pl3     1 <0>        -0.5028
     11 N3          7.4128    5.2399    5.2774 N.pl3     1 <0>        -0.5121
     12 C8          7.2202    4.3978    4.2428 C.2       1 <0>         0.5599
     13 S2          8.5356    3.9618    3.2376 S.2       1 <0>        -0.5482
     14 N4          5.9919    3.8991    3.9995 N.pl3     1 <0>        -0.6294
     15 C9          5.8129    2.9374    2.9995 C.ar      1 <0>         0.1475
     16 C10         6.7289    1.9033    2.8566 C.ar      1 <0>        -0.1079
     17 C11         6.5491    0.9552    1.8685 C.ar      1 <0>        -0.0189
     18 C12         5.4585    1.0348    1.0221 C.ar      1 <0>        -0.6395
     19 C13         4.5474    2.0661    1.1585 C.ar      1 <0>         0.0184
     20 C14         4.7187    3.0145    2.1478 C.ar      1 <0>        -0.1534
     21 S3          5.2331   -0.1765   -0.2375 S.o2      1 <0>         2.6230
     22 O1          6.5163   -0.7226   -0.5101 O.2       1 <0>        -0.9916
     23 O2          4.4331    0.4284   -1.2441 O.2       1 <0>        -1.0197
     24 N5          4.3273   -1.3993    0.4156 N.2       1 <0>        -1.0088
     25 C15         3.0222   -1.1596    0.8093 C.ar      1 <0>         0.5833
     26 N6          2.2188   -2.1864    1.0452 N.ar      1 <0>        -0.5496
     27 C16         0.9661   -1.9919    1.4228 C.ar      1 <0>         0.1775
     28 C17         0.4980   -0.6958    1.5708 C.ar      1 <0>        -0.3381
     29 C18         1.3651    0.3551    1.3159 C.ar      1 <0>         0.1833
     30 N7          2.6059    0.0914    0.9410 N.ar      1 <0>        -0.6116
     31 H1          8.6039    9.8583   11.6522 H         1 <0>         0.1250
     32 H2          7.2112    7.8348   11.8035 H         1 <0>         0.1287
     33 H3          6.8114    6.4607    9.8012 H         1 <0>         0.1418
     34 H4          9.2130    9.1425    7.4930 H         1 <0>         0.1248
     35 H5          9.5992   10.5147    9.4992 H         1 <0>         0.1278
     36 H6          8.5824    6.7320    6.6801 H         1 <0>         0.4210
     37 H7          5.3339    5.1896    5.9015 H         1 <0>         0.4715
     38 H8          8.4152    5.6470    5.4759 H         1 <0>         0.4666
     39 H9          5.1302    4.2483    4.5873 H         1 <0>         0.4172
     40 H10         7.5807    1.8405    3.5175 H         1 <0>         0.1389
     41 H11         7.2609    0.1506    1.7571 H         1 <0>         0.1383
     42 H12         3.6989    2.1278    0.4932 H         1 <0>         0.1501
     43 H13         4.0044    3.8172    2.2567 H         1 <0>         0.1230
     44 H14         0.3159   -2.8330    1.6133 H         1 <0>         0.1475
     45 H15        -0.5216   -0.5087    1.8737 H         1 <0>         0.1222
     46 H16         1.0315    1.3768    1.4215 H         1 <0>         0.1431
@<TRIPOS>BOND
     1    1    6 ar
     2    1    2 ar
     3    1   31 1
     4    2    3 ar
     5    2   32 1
     6    3    4 ar
     7    3   33 1
     8    4    5 ar
     9    4    7 1
    10    5    6 ar
    11    5   34 1
    12    6   35 1
    13    7    8 1
    14    7   36 1
    15    8    9 2
    16    8   10 1
    17   10   11 1
    18   10   37 1
    19   11   12 1
    20   11   38 1
    21   12   13 2
    22   12   14 1
    23   14   15 1
    24   14   39 1
    25   15   20 ar
    26   15   16 ar
    27   16   17 ar
    28   16   40 1
    29   17   18 ar
    30   17   41 1
    31   18   19 ar
    32   18   21 1
    33   19   20 ar
    34   19   42 1
    35   20   43 1
    36   21   22 2
    37   21   23 2
    38   21   24 1
    39   24   25 1
    40   25   30 ar
    41   25   26 ar
    42   26   27 ar
    43   27   28 ar
    44   27   44 1
    45   28   29 ar
    46   28   45 1
    47   29   30 ar
    48   29   46 1
@<TRIPOS>MOLECULE
ZINC34239457
   54    56     0     0     0
SMALL
USER_CHARGES

@<TRIPOS>ATOM
      1 C1         -0.0173    1.4248    0.0099 C.3       1 <0>         0.0285
      2 O1          0.0021   -0.0041    0.0020 O.3       1 <0>        -0.3212
      3 C2          0.6262   -0.6187    1.0421 C.ar      1 <0>         0.0776
      4 C3          1.2022    0.1390    2.0510 C.ar      1 <0>        -0.1663
      5 C4          1.8361   -0.4854    3.1075 C.ar      1 <0>        -0.1158
      6 C5          1.8963   -1.8701    3.1597 C.ar      1 <0>         0.1046
      7 C6          1.3196   -2.6278    2.1513 C.ar      1 <0>        -0.1738
      8 C7          0.6819   -2.0035    1.0970 C.ar      1 <0>        -0.1091
      9 O2          2.5212   -2.4847    4.1994 O.3       1 <0>        -0.2924
     10 C8          2.5454   -3.9135    4.1887 C.3       1 <0>         0.0150
     11 C9          3.2744   -4.4127    5.4095 C.2       1 <0>         0.3939
     12 O3          3.7288   -3.6223    6.2102 O.2       1 <0>        -0.4339
     13 C10         3.4345   -5.8520    5.6295 C.ar      1 <0>        -0.3495
     14 C11         2.9160   -6.7681    4.7037 C.ar      1 <0>        -0.0026
     15 C12         3.0664   -8.1081    4.9107 C.ar      1 <0>        -0.2779
     16 C13         3.7340   -8.5764    6.0398 C.ar      1 <0>         0.1727
     17 C14         4.2542   -7.6846    6.9665 C.ar      1 <0>        -0.3086
     18 C15         4.1143   -6.3218    6.7676 C.ar      1 <0>         0.3338
     19 O4          4.6251   -5.4452    7.6673 O.3       1 <0>        -0.6657
     20 O5          3.8761   -9.9115    6.2345 O.3       1 <0>        -0.3413
     21 C16         4.5712  -10.3249    7.4127 C.3       1 <0>         0.2179
     22 H1          4.0976   -9.8816    8.2886 H         1 <0>         0.1100
     23 C17         4.5240  -11.8510    7.5242 C.3       1 <0>         0.0679
     24 H2          3.4859  -12.1834    7.5367 H         1 <0>         0.0723
     25 C18         5.2439  -12.4658    6.3200 C.3       1 <0>         0.0827
     26 H3          4.7201  -12.1930    5.4038 H         1 <0>         0.0864
     27 C19         6.6782  -11.9307    6.2688 C.3       1 <0>         0.0954
     28 H4          7.1809  -12.3201    5.3835 H         1 <0>         0.0673
     29 C20         6.6423  -10.4015    6.2058 C.3       1 <0>         0.1030
     30 H5          6.1392  -10.0872    5.2913 H         1 <0>         0.0849
     31 O6          5.9322   -9.8957    7.3383 O.3       1 <0>        -0.3417
     32 C21         8.0719   -9.8567    6.2147 C.3       1 <0>         0.0913
     33 O7          8.0425   -8.4389    6.0387 O.3       1 <0>        -0.5539
     34 O8          7.3845  -12.3451    7.4400 O.3       1 <0>        -0.5313
     35 O9          5.2669  -13.8885    6.4520 O.3       1 <0>        -0.5564
     36 O10         5.1715  -12.2620    8.7300 O.3       1 <0>        -0.5205
     37 H6          1.0053    1.8021    0.0021 H         1 <0>         0.0533
     38 H7         -0.5445    1.7859   -0.8732 H         1 <0>         0.0963
     39 H8         -0.5275    1.7763    0.9067 H         1 <0>         0.0532
     40 H9          1.1553    1.2172    2.0103 H         1 <0>         0.1317
     41 H10         2.2852    0.1047    3.8927 H         1 <0>         0.1346
     42 H11         1.3668   -3.7060    2.1918 H         1 <0>         0.1369
     43 H12         0.2295   -2.5936    0.3137 H         1 <0>         0.1315
     44 H13         1.5240   -4.2942    4.1945 H         1 <0>         0.0834
     45 H14         3.0578   -4.2615    3.2919 H         1 <0>         0.0835
     46 H15         2.3967   -6.4126    3.8260 H         1 <0>         0.1038
     47 H16         2.6649   -8.8101    4.1949 H         1 <0>         0.1040
     48 H17         4.7710   -8.0530    7.8403 H         1 <0>         0.1150
     49 H18         8.5456  -10.0949    7.1671 H         1 <0>         0.0626
     50 H19         8.6393  -10.3119    5.4029 H         1 <0>         0.0542
     51 H20         8.9164   -8.0249    6.0342 H         1 <0>         0.3769
     52 H21         7.4420  -13.3046    7.5458 H         1 <0>         0.3782
     53 H22         4.3900  -14.2936    6.4966 H         1 <0>         0.3820
     54 H23         4.7693  -11.9050    9.5337 H         1 <0>         0.3756
@<TRIPOS>BOND
     1    1    2 1
     2    1   37 1
     3    1   38 1
     4    1   39 1
     5    2    3 1
     6    3    8 ar
     7    3    4 ar
     8    4    5 ar
     9    4   40 1
    10    5    6 ar
    11    5   41 1
    12    6    7 ar
    13    6    9 1
    14    7    8 ar
    15    7   42 1
    16    8   43 1
    17    9   10 1
    18   10   11 1
    19   10   44 1
    20   10   45 1
    21   11   12 2
    22   11   13 1
    23   13   18 ar
    24   13   14 ar
    25   14   15 ar
    26   14   46 1
    27   15   16 ar
    28   15   47 1
    29   16   17 ar
    30   16   20 1
    31   17   18 ar
    32   17   48 1
    33   18   19 1
    34   20   21 1
    35   21   22 1
    36   21   31 1
    37   21   23 1
    38   23   24 1
    39   23   25 1
    40   23   36 1
    41   25   26 1
    42   25   27 1
    43   25   35 1
    44   27   28 1
    45   27   29 1
    46   27   34 1
    47   29   30 1
    48   29   31 1
    49   29   32 1
    50   32   33 1
    51   32   49 1
    52   32   50 1
    53   33   51 1
    54   34   52 1
    55   35   53 1
    56   36   54 1
@<TRIPOS>MOLECULE
ZINC44020824
   66    67     0     0     0
SMALL
USER_CHARGES

@<TRIPOS>ATOM
      1 C1          0.0016    1.5397    0.0196 C.3       1 <0>        -0.1457
      2 C2          0.0087    0.0098    0.0031 C.3       1 <0>        -0.0623
      3 H1         -1.0156   -0.3510    0.0968 H         1 <0>         0.0892
      4 C3          0.5751   -0.4618   -1.3012 C.2       1 <0>        -0.1291
      5 C4          1.3978   -1.4890   -1.4260 C.2       1 <0>        -0.1337
      6 C5          1.8239   -2.2372   -0.2209 C.2       1 <0>        -0.0668
      7 C6          2.8564   -3.0560   -0.2979 C.2       1 <0>        -0.1861
      8 C7          3.3551   -3.7880    0.9217 C.3       1 <0>         0.1407
      9 H2          2.8019   -4.7189    1.0460 H         1 <0>         0.0721
     10 C8          3.1238   -2.8786    2.1368 C.3       1 <0>        -0.1246
     11 C9          1.6228   -2.6328    2.2748 C.3       1 <0>         0.0946
     12 H3          1.4487   -1.9710    3.1232 H         1 <0>         0.1079
     13 C10         1.0356   -2.0049    1.0342 C.3       1 <0>        -0.0506
     14 H4          0.0498   -2.4447    0.8828 H         1 <0>         0.0961
     15 C11         0.8269   -0.4979    1.1916 C.3       1 <0>        -0.0690
     16 H5          1.7932    0.0059    1.2124 H         1 <0>         0.0771
     17 C12         0.0707   -0.2192    2.4921 C.3       1 <0>        -0.1188
     18 C13        -1.2155   -1.0474    2.5217 C.3       1 <0>        -0.1553
     19 C14        -2.0324   -0.6766    3.7611 C.3       1 <0>         0.1092
     20 H6         -2.2078    0.3992    3.7722 H         1 <0>         0.1044
     21 C15        -3.3738   -1.4117    3.7264 C.3       1 <0>        -0.1853
     22 C16        -4.2405   -0.9469    4.8985 C.3       1 <0>         0.1352
     23 H7         -3.6937   -1.0840    5.8315 H         1 <0>         0.1016
     24 C17        -5.5297   -1.7699    4.9373 C.3       1 <0>        -0.2180
     25 C18        -6.3266   -1.3978    6.1611 C.2       1 <0>         0.4904
     26 O1         -5.9026   -0.5527    6.9309 O.co2     1 <0>        -0.6800
     27 O2         -7.3952   -1.9419    6.3813 O.co2     1 <0>        -0.7135
     28 O3         -4.5626    0.4355    4.7340 O.3       1 <0>        -0.5408
     29 O4         -1.3126   -1.0540    4.9364 O.3       1 <0>        -0.5496
     30 O5          0.9682   -3.8797    2.5168 O.3       1 <0>        -0.3493
     31 C19         0.8232   -4.2533    3.7979 C.2       1 <0>         0.4575
     32 O6          1.2384   -3.5450    4.6844 O.2       1 <0>        -0.4735
     33 C20         0.1427   -5.5561    4.1305 C.3       1 <0>        -0.1194
     34 H8         -0.8761   -5.5431    3.7431 H         1 <0>         0.1166
     35 C21         0.9158   -6.7125    3.4936 C.3       1 <0>        -0.1519
     36 C22         0.1085   -5.7405    5.6490 C.3       1 <0>         0.1169
     37 H9         -0.4423   -4.9166    6.1028 H         1 <0>         0.1105
     38 C23        -0.5824   -7.0632    5.9867 C.3       1 <0>        -0.1880
     39 O7          1.4441   -5.7575    6.1569 O.3       1 <0>        -0.5435
     40 O8          4.7495   -4.0678    0.7826 O.3       1 <0>        -0.5618
     41 H10         1.0276    1.9078    0.0170 H         1 <0>         0.0558
     42 H11        -0.5195    1.9102   -0.8631 H         1 <0>         0.0568
     43 H12        -0.5081    1.8910    0.9168 H         1 <0>         0.0641
     44 H13         0.2929    0.0714   -2.1970 H         1 <0>         0.1086
     45 H14         1.7571   -1.7813   -2.4017 H         1 <0>         0.1183
     46 H15         3.3501   -3.2036   -1.2471 H         1 <0>         0.1168
     47 H16         3.5004   -3.3652    3.0366 H         1 <0>         0.0801
     48 H17         3.6393   -1.9297    1.9887 H         1 <0>         0.0876
     49 H18         0.6971   -0.4904    3.3419 H         1 <0>         0.0748
     50 H19        -0.1782    0.8405    2.5477 H         1 <0>         0.0745
     51 H20        -1.8010   -0.8414    1.6256 H         1 <0>         0.0728
     52 H21        -0.9643   -2.1075    2.5559 H         1 <0>         0.0612
     53 H22        -3.8838   -1.1930    2.7883 H         1 <0>         0.0668
     54 H23        -3.2019   -2.4852    3.8049 H         1 <0>         0.0649
     55 H24        -6.1190   -1.5644    4.0437 H         1 <0>         0.0556
     56 H25        -5.2825   -2.8309    4.9734 H         1 <0>         0.0604
     57 H26        -5.0509    0.6317    3.9227 H         1 <0>         0.3527
     58 H27        -1.1211   -2.0001    4.9935 H         1 <0>         0.3645
     59 H28         1.9346   -6.7255    3.8810 H         1 <0>         0.0618
     60 H29         0.4236   -7.6548    3.7341 H         1 <0>         0.0771
     61 H30         0.9401   -6.5811    2.4118 H         1 <0>         0.0728
     62 H31        -0.0316   -7.8870    5.5329 H         1 <0>         0.0622
     63 H32        -0.6068   -7.1946    7.0685 H         1 <0>         0.0717
     64 H33        -1.6012   -7.0502    5.5993 H         1 <0>         0.0710
     65 H34         1.9933   -6.4667    5.7956 H         1 <0>         0.3655
     66 H35         4.9660   -4.6163    0.0162 H         1 <0>         0.3780
@<TRIPOS>BOND
     1    1    2 1
     2    1   41 1
     3    1   42 1
     4    1   43 1
     5    2    3 1
     6    2   15 1
     7    2    4 1
     8    4    5 2
     9    4   44 1
    10    5    6 1
    11    5   45 1
    12    6   13 1
    13    6    7 2
    14    7    8 1
    15    7   46 1
    16    8    9 1
    17    8   10 1
    18    8   40 1
    19   10   11 1
    20   10   47 1
    21   10   48 1
    22   11   12 1
    23   11   13 1
    24   11   30 1
    25   13   14 1
    26   13   15 1
    27   15   16 1
    28   15   17 1
    29   17   18 1
    30   17   49 1
    31   17   50 1
    32   18   19 1
    33   18   51 1
    34   18   52 1
    35   19   20 1
    36   19   21 1
    37   19   29 1
    38   21   22 1
    39   21   53 1
    40   21   54 1
    41   22   23 1
    42   22   24 1
    43   22   28 1
    44   24   25 1
    45   24   55 1
    46   24   56 1
    47   25   26 2
    48   25   27 1
    49   28   57 1
    50   29   58 1
    51   30   31 1
    52   31   32 2
    53   31   33 1
    54   33   34 1
    55   33   35 1
    56   33   36 1
    57   35   59 1
    58   35   60 1
    59   35   61 1
    60   36   37 1
    61   36   38 1
    62   36   39 1
    63   38   62 1
    64   38   63 1
    65   38   64 1
    66   39   65 1
    67   40   66 1
@<TRIPOS>MOLECULE
ZINC15275991
   54    57     0     0     0
SMALL
USER_CHARGES

@<TRIPOS>ATOM
      1 C1          0.0960    0.8418   -0.4906 C.ar      1 <0>        -0.1101
      2 C2          1.2452    1.6097   -0.4676 C.ar      1 <0>        -0.1264
      3 C3          2.4824    0.9997   -0.3775 C.ar      1 <0>        -0.0960
      4 C4          2.5703   -0.3782   -0.3100 C.ar      1 <0>        -0.1188
      5 C5          1.4211   -1.1460   -0.3322 C.ar      1 <0>        -0.0931
      6 C6          0.1840   -0.5361   -0.4236 C.ar      1 <0>        -0.1222
      7 C7          3.9192   -1.0432   -0.2128 C.3       1 <0>         0.1391
      8 N1          4.2881   -1.1956    1.1968 N.am      1 <0>        -0.5692
      9 C8          4.9643   -0.2597    1.8731 C.2       1 <0>         0.5265
     10 O1          5.3431    0.7978    1.4172 O.2       1 <0>        -0.4508
     11 C9          5.1815   -0.7266    3.2949 C.3       1 <0>        -0.1319
     12 H1          4.7667   -0.0383    4.0313 H         1 <0>         0.1683
     13 C10         6.6840   -0.9984    3.5160 C.3       1 <0>         0.1117
     14 H2          6.9362   -0.9009    4.5719 H         1 <0>         0.1751
     15 N2          6.8846   -2.3986    3.0632 N.4       1 <0>        -0.4975
     16 C11         5.6786   -3.1155    3.5503 C.3       1 <0>        -0.0035
     17 C12         4.5002   -2.1212    3.3224 C.3       1 <0>        -0.1107
     18 H3          3.7215   -2.1969    4.0813 H         1 <0>         0.1712
     19 C13         3.9714   -2.2795    1.9146 C.2       1 <0>         0.5163
     20 O2          3.3589   -3.2400    1.5001 O.2       1 <0>        -0.4213
     21 C14         5.4590   -4.3976    2.7448 C.3       1 <0>        -0.0881
     22 C15         6.6612   -5.3263    2.9266 C.3       1 <0>        -0.1916
     23 C16         6.4449   -6.5892    2.1333 C.2       1 <0>         0.4943
     24 O3          5.4238   -6.7331    1.4827 O.co2     1 <0>        -0.6892
     25 O4          7.2910   -7.4670    2.1419 O.co2     1 <0>        -0.6995
     26 C17         5.8128   -3.4322    5.0175 C.2       1 <0>         0.5191
     27 O5          6.8280   -3.1227    5.6176 O.co2     1 <0>        -0.6712
     28 O6          4.9062   -3.9980    5.6044 O.co2     1 <0>        -0.6216
     29 C18         7.5160   -0.0524    2.6890 C.ar      1 <0>        -0.1526
     30 C19         7.9692   -0.4407    1.4425 C.ar      1 <0>        -0.0925
     31 C20         8.7321    0.4243    0.6820 C.ar      1 <0>        -0.1318
     32 C21         9.0452    1.6859    1.1684 C.ar      1 <0>         0.1434
     33 C22         8.5918    2.0778    2.4183 C.ar      1 <0>        -0.1601
     34 C23         7.8216    1.2099    3.1773 C.ar      1 <0>         0.1751
     35 O7          7.3706    1.5935    4.4005 O.3       1 <0>        -0.4893
     36 O8          9.7961    2.5362    0.4200 O.3       1 <0>        -0.4956
     37 H4         -0.8709    1.3186   -0.5565 H         1 <0>         0.1225
     38 H5          1.1764    2.6862   -0.5203 H         1 <0>         0.1224
     39 H6          3.3802    1.5997   -0.3602 H         1 <0>         0.1249
     40 H7          1.4899   -2.2226   -0.2798 H         1 <0>         0.1308
     41 H8         -0.7139   -1.1361   -0.4413 H         1 <0>         0.1254
     42 H9          3.8752   -2.0246   -0.6850 H         1 <0>         0.1087
     43 H10         4.6642   -0.4295   -0.7191 H         1 <0>         0.1034
     44 H11         6.9373   -2.4399    2.0564 H         1 <0>         0.4022
     45 H12         4.5569   -4.8979    3.0970 H         1 <0>         0.1190
     46 H13         5.3481   -4.1491    1.6893 H         1 <0>         0.0707
     47 H14         7.5633   -4.8260    2.5744 H         1 <0>         0.0416
     48 H15         6.7721   -5.5748    3.9821 H         1 <0>         0.0783
     49 H16         7.7269   -1.4222    1.0625 H         1 <0>         0.1205
     50 H17         9.0854    0.1184   -0.2916 H         1 <0>         0.1397
     51 H18         8.8344    3.0591    2.7985 H         1 <0>         0.1431
     52 H19         7.9742    1.3830    5.1260 H         1 <0>         0.4011
     53 H20         9.2789    3.1066   -0.1650 H         1 <0>         0.3980
     54 H21         7.7181   -2.7877    3.4781 H         1 <0>         0.4420
@<TRIPOS>BOND
     1    1    6 ar
     2    1    2 ar
     3    1   37 1
     4    2    3 ar
     5    2   38 1
     6    3    4 ar
     7    3   39 1
     8    4    5 ar
     9    4    7 1
    10    5    6 ar
    11    5   40 1
    12    6   41 1
    13    7    8 1
    14    7   42 1
    15    7   43 1
    16    8   19 am
    17    8    9 am
    18    9   10 2
    19    9   11 1
    20   11   12 1
    21   11   17 1
    22   11   13 1
    23   13   14 1
    24   13   15 1
    25   13   29 1
    26   15   16 1
    27   15   44 1
    28   15   54 1
    29   16   17 1
    30   16   21 1
    31   16   26 1
    32   17   18 1
    33   17   19 1
    34   19   20 2
    35   21   22 1
    36   21   45 1
    37   21   46 1
    38   22   23 1
    39   22   47 1
    40   22   48 1
    41   23   24 2
    42   23   25 1
    43   26   27 2
    44   26   28 1
    45   29   34 ar
    46   29   30 ar
    47   30   31 ar
    48   30   49 1
    49   31   32 ar
    50   31   50 1
    51   32   33 ar
    52   32   36 1
    53   33   34 ar
    54   33   51 1
    55   34   35 1
    56   35   52 1
    57   36   53 1
@<TRIPOS>MOLECULE
ZINC03839114
   57    59     0     0     0
SMALL
USER_CHARGES
N-(carbamoylmethyl)-3-[(2,4-difluorophenyl)carbamoylamino]-N-methyl-1-(1-methylpyrrol-2-yl)carbonyl-pyrrolidine-2-carboxamide
@<TRIPOS>ATOM
      1 C1         -0.5958   -0.4829    0.3746 C.3       1 <0>         0.0644
      2 N1         -0.7058    0.9747    0.4717 N.pl3     1 <0>        -0.4096
      3 C2         -1.8621    1.6760    0.5613 C.2       1 <0>         0.0176
      4 C3         -1.5690    2.9960    0.6406 C.2       1 <0>        -0.2073
      5 C4         -0.1780    3.1304    0.5891 C.2       1 <0>        -0.1533
      6 C5          0.3481    1.8600    0.4875 C.2       1 <0>        -0.0474
      7 C6          1.7716    1.5149    0.4098 C.2       1 <0>         0.6114
      8 O1          2.1197    0.3505    0.4729 O.2       1 <0>        -0.5278
      9 N2          2.6940    2.4873    0.2684 N.am      1 <0>        -0.5900
     10 C7          2.4147    3.9332    0.2005 C.3       1 <0>         0.0854
     11 C8          3.6244    4.5356   -0.5568 C.3       1 <0>        -0.1433
     12 C9          4.7934    3.6720   -0.0137 C.3       1 <0>         0.1683
     13 H1          5.1450    4.0570    0.9435 H         1 <0>         0.1162
     14 C10         4.1460    2.2821    0.1629 C.3       1 <0>         0.1233
     15 H2          4.3703    1.6582   -0.7023 H         1 <0>         0.1057
     16 C11         4.6639    1.6283    1.4180 C.2       1 <0>         0.5214
     17 O2          4.0026    1.6577    2.4342 O.2       1 <0>        -0.5121
     18 N3          5.8619    1.0108    1.4112 N.am      1 <0>        -0.5957
     19 C12         6.6607    0.9753    0.1837 C.3       1 <0>         0.0789
     20 C13         6.3653    0.3752    2.6314 C.3       1 <0>         0.0964
     21 C14         5.9083   -1.0602    2.6753 C.2       1 <0>         0.4958
     22 O3          5.2290   -1.5081    1.7759 O.2       1 <0>        -0.5229
     23 N4          6.2545   -1.8461    3.7140 N.am      1 <0>        -0.8559
     24 N5          5.8907    3.6167   -0.9827 N.am      1 <0>        -0.7323
     25 C15         6.8328    4.5805   -0.9896 C.2       1 <0>         0.7134
     26 O4          6.7720    5.4959   -0.1915 O.2       1 <0>        -0.5610
     27 N6          7.8424    4.5297   -1.8811 N.am      1 <0>        -0.6803
     28 C16         8.7704    5.5783   -1.9496 C.ar      1 <0>         0.1235
     29 C17         9.1417    6.2543   -0.7959 C.ar      1 <0>        -0.0639
     30 C18        10.0563    7.2873   -0.8651 C.ar      1 <0>        -0.1416
     31 C19        10.6034    7.6495   -2.0846 C.ar      1 <0>         0.1165
     32 C20        10.2354    6.9774   -3.2378 C.ar      1 <0>        -0.1722
     33 C21         9.3245    5.9388   -3.1726 C.ar      1 <0>         0.1031
     34 F1          8.9693    5.2790   -4.2968 F         1 <0>        -0.1283
     35 F2         11.4972    8.6605   -2.1492 F         1 <0>        -0.1295
     36 H3         -0.6126   -0.9160    1.3747 H         1 <0>         0.0772
     37 H4         -1.4332   -0.8727   -0.2042 H         1 <0>         0.0831
     38 H5          0.3401   -0.7446   -0.1190 H         1 <0>         0.1020
     39 H6         -2.8550    1.2512    0.5732 H         1 <0>         0.1700
     40 H7         -2.2829    3.8019    0.7254 H         1 <0>         0.1445
     41 H8          0.3793    4.0547    0.6266 H         1 <0>         0.1574
     42 H9          1.4926    4.1160   -0.3511 H         1 <0>         0.1066
     43 H10         2.3474    4.3541    1.2037 H         1 <0>         0.0834
     44 H11         3.5132    4.4098   -1.6338 H         1 <0>         0.0883
     45 H12         3.7621    5.5861   -0.3005 H         1 <0>         0.1024
     46 H13         7.3141    1.8471    0.1501 H         1 <0>         0.0619
     47 H14         7.2644    0.0679    0.1692 H         1 <0>         0.0768
     48 H15         5.9978    0.9846   -0.6816 H         1 <0>         0.0696
     49 H16         7.4547    0.4100    2.6363 H         1 <0>         0.1111
     50 H17         5.9809    0.9057    3.5026 H         1 <0>         0.1158
     51 H18         6.7978   -1.4878    4.4333 H         1 <0>         0.4015
     52 H19         5.9604   -2.7700    3.7423 H         1 <0>         0.4032
     53 H20         5.9393    2.8865   -1.6194 H         1 <0>         0.4012
     54 H21         7.9268    3.7677   -2.4752 H         1 <0>         0.4123
     55 H22         8.7160    5.9726    0.1559 H         1 <0>         0.1629
     56 H23        10.3453    7.8129    0.0330 H         1 <0>         0.1482
     57 H24        10.6632    7.2614   -4.1879 H         1 <0>         0.1536
@<TRIPOS>BOND
     1    1    2 1
     2    1   36 1
     3    1   37 1
     4    1   38 1
     5    2    6 1
     6    2    3 1
     7    3    4 2
     8    3   39 1
     9    4    5 1
    10    4   40 1
    11    5    6 2
    12    5   41 1
    13    6    7 1
    14    7    8 2
    15    7    9 am
    16    9   14 1
    17    9   10 1
    18   10   11 1
    19   10   42 1
    20   10   43 1
    21   11   12 1
    22   11   44 1
    23   11   45 1
    24   12   13 1
    25   12   14 1
    26   12   24 1
    27   14   15 1
    28   14   16 1
    29   16   17 2
    30   16   18 am
    31   18   19 1
    32   18   20 1
    33   19   46 1
    34   19   47 1
    35   19   48 1
    36   20   21 1
    37   20   49 1
    38   20   50 1
    39   21   22 2
    40   21   23 am
    41   23   51 1
    42   23   52 1
    43   24   25 am
    44   24   53 1
    45   25   26 2
    46   25   27 am
    47   27   28 1
    48   27   54 1
    49   28   33 ar
    50   28   29 ar
    51   29   30 ar
    52   29   55 1
    53   30   31 ar
    54   30   56 1
    55   31   32 ar
    56   31   35 1
    57   32   33 ar
    58   32   57 1
    59   33   34 1
@<TRIPOS>MOLECULE
ZINC20838082
   41    42     0     0     0
SMALL
USER_CHARGES
N'-[2-[[5-[(N'E)-N'-[(1-ethylpyrazol-4-yl)methylene]hydrazino]-4H-1,2,4-triazol-3-yl]sulfanyl]acetyl]-2,2,2-trifluoro-acetohydrazide
@<TRIPOS>ATOM
      1 C1          2.6634    3.4188    1.1767 C.3       1 <0>        -0.1696
      2 C2          1.7091    3.1901    0.0029 C.3       1 <0>         0.1236
      3 N1          1.2647    1.7941   -0.0004 N.pl3     1 <0>        -0.3590
      4 C3         -0.0166    1.3737    0.0096 C.2       1 <0>         0.0986
      5 C4          0.0021   -0.0041    0.0020 C.2       1 <0>        -0.2154
      6 C5          1.3553   -0.4050   -0.0131 C.2       1 <0>         0.0866
      7 N2          2.0975    0.6694   -0.0144 N.2       1 <0>        -0.2934
      8 C6         -1.1747   -0.8953    0.0080 C.2       1 <0>         0.1723
      9 N3         -1.0135   -2.1829   -0.0004 N.2       1 <0>        -0.2690
     10 N4         -2.1303   -3.0287    0.0053 N.pl3     1 <0>        -0.5607
     11 C7         -1.9580   -4.4051   -0.0036 C.2       1 <0>         0.5457
     12 N5         -2.9557   -5.3400    0.0005 N.2       1 <0>        -0.5543
     13 C8         -2.3754   -6.5768   -0.0115 C.2       1 <0>         0.2073
     14 N6         -1.0741   -6.4139   -0.0225 N.2       1 <0>        -0.3294
     15 N7         -0.8100   -5.0380   -0.0233 N.pl3     1 <0>        -0.4760
     16 S1         -3.2259   -8.1199   -0.0128 S.3       1 <0>         0.1229
     17 C9         -1.8964   -9.3538   -0.0312 C.3       1 <0>        -0.1575
     18 C10        -2.4947  -10.7370   -0.0339 C.2       1 <0>         0.5447
     19 O1         -3.6994  -10.8766   -0.0243 O.2       1 <0>        -0.5168
     20 N8         -1.6910  -11.8188   -0.0469 N.am      1 <0>        -0.5248
     21 N9         -2.2472  -13.1047   -0.0493 N.am      1 <0>        -0.5013
     22 C11        -1.4435  -14.1865   -0.0624 C.2       1 <0>         0.4819
     23 O2         -0.2388  -14.0469   -0.0719 O.2       1 <0>        -0.4829
     24 C12        -2.0418  -15.5697   -0.0650 C.3       1 <0>         0.4691
     25 F1         -1.0165  -16.5213   -0.0792 F         1 <0>        -0.1449
     26 F2         -2.8224  -15.7423    1.0831 F         1 <0>        -0.1618
     27 F3         -2.8421  -15.7294   -1.2013 F         1 <0>        -0.1618
     28 H1          2.9970    4.4670    1.1791 H         1 <0>         0.0796
     29 H2          3.5357    2.7566    1.0744 H         1 <0>         0.0731
     30 H3          2.1435    3.1973    2.1204 H         1 <0>         0.0623
     31 H4          0.8368    3.8523    0.1052 H         1 <0>         0.1020
     32 H5          2.2290    3.4116   -0.9409 H         1 <0>         0.0917
     33 H6         -0.8955    2.0012    0.0174 H         1 <0>         0.1855
     34 H7          1.7144   -1.4235   -0.0223 H         1 <0>         0.1883
     35 H8         -2.1882   -0.4680    0.0196 H         1 <0>         0.1278
     36 H9         -3.1438   -2.6014    0.0168 H         1 <0>         0.4352
     37 H10        -1.2826   -9.2180   -0.9339 H         1 <0>         0.1324
     38 H11        -1.2672   -9.2282    0.8623 H         1 <0>         0.1324
     39 H12        -0.5984  -11.6921   -0.0556 H         1 <0>         0.4672
     40 H13        -3.3398  -13.2314   -0.0405 H         1 <0>         0.4731
     41 H14         0.1314   -4.4692   -0.0368 H         1 <0>         0.4752
@<TRIPOS>BOND
     1    1    2 1
     2    1   28 1
     3    1   29 1
     4    1   30 1
     5    2    3 1
     6    2   31 1
     7    2   32 1
     8    3    7 1
     9    3    4 1
    10    4    5 2
    11    4   33 1
    12    5    6 1
    13    5    8 1
    14    6    7 2
    15    6   34 1
    16    8    9 2
    17    8   35 1
    18    9   10 1
    19   10   11 1
    20   10   36 1
    21   11   15 1
    22   11   12 2
    23   12   13 1
    24   13   14 2
    25   13   16 1
    26   14   15 1
    27   15   41 1
    28   16   17 1
    29   17   18 1
    30   17   37 1
    31   17   38 1
    32   18   19 2
    33   18   20 am
    34   20   21 1
    35   20   39 1
    36   21   22 am
    37   21   40 1
    38   22   23 2
    39   22   24 1
    40   24   25 1
    41   24   26 1
    42   24   27 1
@<TRIPOS>MOLECULE
ZINC37930063
   35    35     0     0     0
SMALL
USER_CHARGES

@<TRIPOS>ATOM
      1 C1         -0.2993    1.9629   -0.7573 C.3       1 <0>        -0.6513
      2 S1         -0.2966    0.1520   -0.6523 S.o2      1 <0>         2.4224
      3 O1          0.3137   -0.2263    0.5739 O.2       1 <0>        -0.9314
      4 O2         -1.6052   -0.3172   -0.9465 O.2       1 <0>        -0.9341
      5 C2          0.8039   -0.3267   -2.0126 C.3       1 <0>        -0.6293
      6 C3          0.9172   -1.8516   -2.0644 C.3       1 <0>         0.1259
      7 N1          1.8060   -2.2382   -3.1630 N.pl3     1 <0>        -1.0928
      8 S2          2.4535   -3.7617   -3.2072 S.o2      1 <0>         2.7011
      9 O3          3.1962   -3.8525   -4.4153 O.2       1 <0>        -0.9254
     10 O4          3.0401   -3.9908   -1.9333 O.2       1 <0>        -0.9489
     11 C4          1.1116   -4.8940   -3.3547 C.ar      1 <0>        -0.5801
     12 C5          0.8704   -5.8124   -2.3515 C.ar      1 <0>        -0.0920
     13 C6         -0.1878   -6.7043   -2.4684 C.ar      1 <0>         0.2547
     14 C7         -1.0004   -6.6693   -3.5948 C.ar      1 <0>        -0.1430
     15 C8         -0.7537   -5.7487   -4.5939 C.ar      1 <0>        -0.0112
     16 C9          0.2978   -4.8585   -4.4719 C.ar      1 <0>        -0.0319
     17 N2          0.5558   -3.8694   -5.5422 N.pl3     1 <0>         0.0364
     18 O5         -0.0703   -3.9194   -6.5752 O.2       1 <0>        -0.1388
     19 O6          1.3927   -3.0115   -5.3835 O.3       1 <0>        -0.1678
     20 N3         -0.4343   -7.6345   -1.4561 N.pl3     1 <0>        -0.5719
     21 N4         -1.4755   -8.5110   -1.5726 N.3       1 <0>        -0.6043
     22 H1          0.7167    2.3359   -0.6279 H         1 <0>         0.1315
     23 H2         -0.6774    2.2698   -1.7325 H         1 <0>         0.1309
     24 H3         -0.9387    2.3713    0.0252 H         1 <0>         0.1340
     25 H4          0.3971    0.0396   -2.9552 H         1 <0>         0.1449
     26 H5          1.7912    0.1057   -1.8505 H         1 <0>         0.1475
     27 H6          1.3240   -2.2180   -1.1219 H         1 <0>         0.0987
     28 H7         -0.0701   -2.2840   -2.2265 H         1 <0>         0.0774
     29 H8          2.0152   -1.6018   -3.8645 H         1 <0>         0.4329
     30 H9          1.5042   -5.8371   -1.4774 H         1 <0>         0.1657
     31 H10        -1.8240   -7.3617   -3.6889 H         1 <0>         0.1583
     32 H11        -1.3850   -5.7210   -5.4697 H         1 <0>         0.1631
     33 H12         0.1339   -7.6581   -0.6703 H         1 <0>         0.4153
     34 H13        -1.4047   -9.0453   -2.4256 H         1 <0>         0.3435
     35 H14        -1.5285   -9.1185   -0.7687 H         1 <0>         0.3700
@<TRIPOS>BOND
     1    1    2 1
     2    1   22 1
     3    1   23 1
     4    1   24 1
     5    2    3 2
     6    2    4 2
     7    2    5 1
     8    5    6 1
     9    5   25 1
    10    5   26 1
    11    6    7 1
    12    6   27 1
    13    6   28 1
    14    7    8 1
    15    7   29 1
    16    8    9 2
    17    8   10 2
    18    8   11 1
    19   11   16 ar
    20   11   12 ar
    21   12   13 ar
    22   12   30 1
    23   13   14 ar
    24   13   20 1
    25   14   15 ar
    26   14   31 1
    27   15   16 ar
    28   15   32 1
    29   16   17 1
    30   17   18 2
    31   17   19 1
    32   20   21 1
    33   20   33 1
    34   21   34 1
    35   21   35 1
@<TRIPOS>MOLECULE
ZINC48524539
   40    40     0     0     0
SMALL
USER_CHARGES

@<TRIPOS>ATOM
      1 C1         -0.0173    1.4248    0.0099 C.3       1 <0>         0.0530
      2 O1          0.0021   -0.0041    0.0020 O.3       1 <0>        -0.3651
      3 C2         -1.1888   -0.6314    0.0100 C.2       1 <0>         0.6234
      4 O2         -2.2164    0.0162    0.0233 O.2       1 <0>        -0.4473
      5 N1         -1.2411   -1.9782    0.0033 N.am      1 <0>        -0.6084
      6 C3         -2.4335   -2.6063    0.0113 C.2       1 <0>         0.5637
      7 S1         -3.8817   -1.6935    0.0300 S.2       1 <0>        -0.4767
      8 N2         -2.4858   -3.9530    0.0046 N.pl3     1 <0>        -0.5228
      9 N3         -1.3302   -4.6813   -0.0104 N.3       1 <0>        -0.3373
     10 C4         -1.2194   -5.4680   -1.2467 C.3       1 <0>         0.0391
     11 C5          0.1215   -6.2056   -1.2605 C.3       1 <0>         0.0403
     12 N4          0.2126   -7.0731   -0.0778 N.3       1 <0>        -0.3374
     13 C6          0.1019   -6.2865    1.1586 C.3       1 <0>         0.0391
     14 C7         -1.2391   -5.5488    1.1723 C.3       1 <0>         0.0403
     15 N5          1.3682   -7.8014   -0.0927 N.pl3     1 <0>        -0.5228
     16 C8          1.3159   -9.1481   -0.0995 C.2       1 <0>         0.5637
     17 S2          2.7642  -10.0609   -0.1182 S.2       1 <0>        -0.4767
     18 N6          0.1235   -9.7763   -0.0915 N.am      1 <0>        -0.6083
     19 C9          0.0712  -11.1230   -0.0982 C.2       1 <0>         0.6234
     20 O3          1.0988  -11.7707   -0.1115 O.2       1 <0>        -0.4473
     21 O4         -1.1197  -11.7504   -0.0902 O.3       1 <0>        -0.3651
     22 C10        -1.1003  -13.1792   -0.0980 C.3       1 <0>         0.0530
     23 H1          1.0053    1.8021    0.0021 H         1 <0>         0.1093
     24 H2         -0.5445    1.7859   -0.8732 H         1 <0>         0.0668
     25 H3         -0.5275    1.7763    0.9067 H         1 <0>         0.0668
     26 H4         -0.4205   -2.4953   -0.0073 H         1 <0>         0.4228
     27 H5         -3.3440   -4.4051    0.0103 H         1 <0>         0.4222
     28 H6         -2.0331   -6.1919   -1.2913 H         1 <0>         0.0701
     29 H7         -1.2771   -4.8021   -2.1078 H         1 <0>         0.1048
     30 H8          0.1935   -6.8125   -2.1630 H         1 <0>         0.1054
     31 H9          0.9355   -5.4808   -1.2434 H         1 <0>         0.0700
     32 H10         0.1595   -6.9523    2.0196 H         1 <0>         0.1048
     33 H11         0.9155   -5.5626    1.2031 H         1 <0>         0.0701
     34 H12        -1.3111   -4.9420    2.0749 H         1 <0>         0.1054
     35 H13        -2.0530   -6.2737    1.1552 H         1 <0>         0.0700
     36 H14         2.2264   -7.3493   -0.0985 H         1 <0>         0.4223
     37 H15        -0.6970   -9.2591   -0.0808 H         1 <0>         0.4228
     38 H16        -2.1229  -13.5565   -0.0903 H         1 <0>         0.1093
     39 H17        -0.5901  -13.5307   -0.9948 H         1 <0>         0.0668
     40 H18        -0.5731  -13.5403    0.7850 H         1 <0>         0.0668
@<TRIPOS>BOND
     1    1    2 1
     2    1   23 1
     3    1   24 1
     4    1   25 1
     5    2    3 1
     6    3    4 2
     7    3    5 am
     8    5    6 1
     9    5   26 1
    10    6    7 2
    11    6    8 1
    12    8    9 1
    13    8   27 1
    14    9   14 1
    15    9   10 1
    16   10   11 1
    17   10   28 1
    18   10   29 1
    19   11   12 1
    20   11   30 1
    21   11   31 1
    22   12   13 1
    23   12   15 1
    24   13   14 1
    25   13   32 1
    26   13   33 1
    27   14   34 1
    28   14   35 1
    29   15   16 1
    30   15   36 1
    31   16   17 2
    32   16   18 1
    33   18   19 am
    34   18   37 1
    35   19   20 2
    36   19   21 1
    37   21   22 1
    38   22   38 1
    39   22   39 1
    40   22   40 1
@<TRIPOS>MOLECULE
ZINC63342033
   42    43     0     0     0
SMALL
USER_CHARGES

@<TRIPOS>ATOM
      1 C1         -0.0184    1.5028    0.0103 C.3       1 <0>        -0.0776
      2 C2          0.0021   -0.0041    0.0020 C.2       1 <0>         0.0666
      3 C3          0.0080   -0.8189   -1.1396 C.2       1 <0>        -0.0144
      4 C4          0.0274   -2.1123   -0.7273 C.2       1 <0>         0.0546
      5 N1          0.0335   -2.1094    0.6309 N.pl3     1 <0>        -0.4738
      6 H1          0.0472   -2.8923    1.2034 H         1 <0>         0.4468
      7 N2          0.0230   -0.7756    1.0584 N.2       1 <0>        -0.2771
      8 N3         -0.0048   -0.3748   -2.4748 N.am      1 <0>        -0.6291
      9 C5          0.0028   -1.2696   -3.4827 C.2       1 <0>         0.5596
     10 O1          0.0208   -2.4607   -3.2382 O.2       1 <0>        -0.5226
     11 C6         -0.0106   -0.8038   -4.8832 C.ar      1 <0>        -0.0541
     12 C7         -0.0255    0.5644   -5.1654 C.ar      1 <0>        -0.2043
     13 C8         -0.0381    0.9980   -6.4779 C.ar      1 <0>         0.1510
     14 C9         -0.0364    0.0726   -7.5181 C.ar      1 <0>         0.0522
     15 C10        -0.0220   -1.2914   -7.2396 C.ar      1 <0>         0.1497
     16 C11        -0.0026   -1.7302   -5.9288 C.ar      1 <0>        -0.1716
     17 O2         -0.0209   -2.1929   -8.2579 O.3       1 <0>        -0.2973
     18 C12        -0.0058   -3.5762   -7.8998 C.3       1 <0>         0.0206
     19 O3         -0.0492    0.5015   -8.8076 O.3       1 <0>        -0.2820
     20 C13         1.2178    0.7183   -9.4319 C.3       1 <0>         0.0448
     21 C14         1.0062    1.1879  -10.8481 C.2       1 <0>         0.5212
     22 O4         -0.1188    1.3236  -11.2803 O.2       1 <0>        -0.5163
     23 N4          2.0672    1.4571  -11.6344 N.am      1 <0>        -0.8532
     24 O5         -0.0525    2.3298   -6.7534 O.3       1 <0>        -0.2969
     25 C15        -0.0539    3.2230   -5.6379 C.3       1 <0>         0.0197
     26 H2          1.0042    1.8801    0.0026 H         1 <0>         0.0812
     27 H3         -0.5455    1.8639   -0.8728 H         1 <0>         0.0732
     28 H4         -0.5286    1.8543    0.9071 H         1 <0>         0.0814
     29 H5          0.0358   -2.9849   -1.3637 H         1 <0>         0.2032
     30 H6         -0.0192    0.5753   -2.6698 H         1 <0>         0.4106
     31 H7         -0.0275    1.2826   -4.3589 H         1 <0>         0.1390
     32 H8          0.0137   -2.7884   -5.7133 H         1 <0>         0.1530
     33 H9          0.8902   -3.7910   -7.3175 H         1 <0>         0.0611
     34 H10        -0.8896   -3.8072   -7.3052 H         1 <0>         0.0625
     35 H11        -0.0065   -4.1855   -8.8036 H         1 <0>         0.1072
     36 H12         1.7715    1.4756   -8.8768 H         1 <0>         0.0859
     37 H13         1.7836   -0.2133   -9.4387 H         1 <0>         0.0861
     38 H14         2.9670    1.3486  -11.2887 H         1 <0>         0.4021
     39 H15         1.9311    1.7594  -12.5460 H         1 <0>         0.4081
     40 H16        -0.9382    3.0405   -5.0274 H         1 <0>         0.0610
     41 H17         0.8416    3.0575   -5.0389 H         1 <0>         0.0597
     42 H18        -0.0660    4.2522   -5.9966 H         1 <0>         0.1078
@<TRIPOS>BOND
     1    1    2 1
     2    1   26 1
     3    1   27 1
     4    1   28 1
     5    2    7 2
     6    2    3 1
     7    3    4 2
     8    3    8 1
     9    4    5 1
    10    4   29 1
    11    5    6 1
    12    5    7 1
    13    8    9 am
    14    8   30 1
    15    9   10 2
    16    9   11 1
    17   11   16 ar
    18   11   12 ar
    19   12   13 ar
    20   12   31 1
    21   13   14 ar
    22   13   24 1
    23   14   15 ar
    24   14   19 1
    25   15   16 ar
    26   15   17 1
    27   16   32 1
    28   17   18 1
    29   18   33 1
    30   18   34 1
    31   18   35 1
    32   19   20 1
    33   20   21 1
    34   20   36 1
    35   20   37 1
    36   21   22 2
    37   21   23 am
    38   23   38 1
    39   23   39 1
    40   24   25 1
    41   25   40 1
    42   25   41 1
    43   25   42 1
@<TRIPOS>MOLECULE
ZINC03830435
   55    58     0     0     0
SMALL
USER_CHARGES
8-[2-[2-(aminomethyl)phenyl]acetyl]amino-4-[[1-(carboxymethyl)tetrazol-5-yl]sulfanylmethyl]-7-oxo-2-thia-6-azabicyclo[4.2.0]oct-4-ene-5-carboxylic acid
@<TRIPOS>ATOM
      1 C1         -1.9677    3.0840   -0.8627 C.ar      1 <0>        -0.0793
      2 C2         -0.8476    3.8912   -0.9352 C.ar      1 <0>        -0.1163
      3 C3          0.4139    3.3301   -0.8713 C.ar      1 <0>        -0.0868
      4 C4          0.5557    1.9616   -0.7350 C.ar      1 <0>        -0.1542
      5 C5         -0.5641    1.1547   -0.6616 C.ar      1 <0>        -0.0396
      6 C6         -1.8259    1.7155   -0.7304 C.ar      1 <0>        -0.0974
      7 C7         -0.4095   -0.3369   -0.5130 C.3       1 <0>        -0.1104
      8 C8         -0.2431   -0.6820    0.9445 C.2       1 <0>         0.5101
      9 O1         -0.2494    0.1969    1.7803 O.2       1 <0>        -0.5157
     10 N1         -0.0873   -1.9672    1.3192 N.am      1 <0>        -0.6955
     11 C9          0.0745   -2.3026    2.7361 C.3       1 <0>         0.1217
     12 H1          0.4885   -1.4782    3.3167 H         1 <0>         0.1446
     13 C10         0.7948   -3.6215    2.9621 C.3       1 <0>         0.1337
     14 H2          1.5276   -3.6335    3.7689 H         1 <0>         0.1514
     15 N2         -0.5783   -4.1063    3.2950 N.am      1 <0>        -0.5609
     16 C11        -1.1690   -2.9025    3.3536 C.2       1 <0>         0.5380
     17 O2         -2.2387   -2.4784    3.7371 O.2       1 <0>        -0.4414
     18 C12        -0.9969   -5.4523    3.3322 C.2       1 <0>         0.1576
     19 C13        -0.3037   -6.3876    2.7043 C.2       1 <0>        -0.1932
     20 C14         0.9737   -6.2455    1.9425 C.3       1 <0>        -0.0118
     21 S1          1.2806   -4.5206    1.4504 S.3       1 <0>        -0.2410
     22 C15        -0.8777   -7.7797    2.7654 C.3       1 <0>        -0.0585
     23 S2         -1.7103   -8.1581    1.2034 S.3       1 <0>         0.0335
     24 C16        -2.2699   -9.7939    1.5435 C.2       1 <0>         0.2221
     25 N3         -2.0784  -10.4701    2.6554 N.2       1 <0>        -0.3401
     26 N4         -2.6206  -11.6315    2.5745 N.2       1 <0>        -0.0523
     27 N5         -3.1802  -11.7855    1.4235 N.2       1 <0>        -0.0871
     28 N6         -2.9731  -10.5936    0.7073 N.pl3     1 <0>        -0.3213
     29 C17        -3.4226  -10.2832   -0.6520 C.3       1 <0>         0.0690
     30 C18        -2.3626  -10.6996   -1.6390 C.2       1 <0>         0.4623
     31 O3         -1.3370  -11.2040   -1.2471 O.co2     1 <0>        -0.6122
     32 C19        -2.2155   -5.8196    4.0759 C.2       1 <0>         0.4976
     33 O4         -3.3012   -5.7521    3.5345 O.co2     1 <0>        -0.5924
     34 C20         1.9311    1.3497   -0.6659 C.3       1 <0>         0.0471
     35 H3         -2.9535    3.5224   -0.9130 H         1 <0>         0.1359
     36 H4         -0.9584    4.9602   -1.0420 H         1 <0>         0.1338
     37 H5          1.2889    3.9606   -0.9283 H         1 <0>         0.1317
     38 H6         -2.7009    1.0846   -0.6776 H         1 <0>         0.1376
     39 H7         -1.2962   -0.8350   -0.9053 H         1 <0>         0.1272
     40 H8          0.4685   -0.6683   -1.0674 H         1 <0>         0.0837
     41 H9         -0.0823   -2.6701    0.6508 H         1 <0>         0.4184
     42 H10         0.9245   -6.8664    1.0480 H         1 <0>         0.1295
     43 H11         1.7984   -6.5884    2.5673 H         1 <0>         0.1048
     44 H12        -0.0742   -8.4971    2.9320 H         1 <0>         0.1032
     45 H13        -1.5952   -7.8412    3.5837 H         1 <0>         0.1232
     46 H14        -4.3462  -10.8228   -0.8615 H         1 <0>         0.1134
     47 H15        -3.6000   -9.2113   -0.7401 H         1 <0>         0.1099
     48 H16         2.6552    2.1143   -0.3842 H         1 <0>         0.1443
     49 H17         1.9372    0.5523    0.0772 H         1 <0>         0.1356
     50 H18         2.2269    1.5041   -2.6974 H         1 <0>         0.4365
     51 H19         3.2069    0.3812   -1.9593 H         1 <0>         0.4398
     52 O5         -2.5579  -10.5102   -2.9534 O.co2     1 <0>        -0.7509
     53 O6         -2.1253   -6.2303    5.3564 O.co2     1 <0>        -0.7260
     54 N7          2.2698    0.7801   -1.9820 N.4       1 <0>        -0.6471
     55 H20         1.5963    0.0404   -2.2132 H         1 <0>         0.4342
@<TRIPOS>BOND
     1    1    6 ar
     2    1    2 ar
     3    1   35 1
     4    2    3 ar
     5    2   36 1
     6    3    4 ar
     7    3   37 1
     8    4    5 ar
     9    4   34 1
    10    5    6 ar
    11    5    7 1
    12    6   38 1
    13    7    8 1
    14    7   39 1
    15    7   40 1
    16    8    9 2
    17    8   10 am
    18   10   11 1
    19   10   41 1
    20   11   12 1
    21   11   16 1
    22   11   13 1
    23   13   14 1
    24   13   21 1
    25   13   15 1
    26   15   16 am
    27   15   18 1
    28   16   17 2
    29   18   19 2
    30   18   32 1
    31   19   20 1
    32   19   22 1
    33   20   21 1
    34   20   42 1
    35   20   43 1
    36   22   23 1
    37   22   44 1
    38   22   45 1
    39   23   24 1
    40   24   28 1
    41   24   25 2
    42   25   26 1
    43   26   27 2
    44   27   28 1
    45   28   29 1
    46   29   30 1
    47   29   46 1
    48   29   47 1
    49   30   31 2
    50   30   52 1
    51   32   33 2
    52   32   53 1
    53   34   48 1
    54   34   49 1
    55   34   54 1
    56   50   54 1
    57   51   54 1
    58   54   55 1
@<TRIPOS>MOLECULE
ZINC13406220
   55    57     0     0     0
SMALL
USER_CHARGES
(4aR,8aR)-4-hydroxy-3-[(3R)-3-[[2-hydroxy-1,1-bis(hydroxymethyl)ethyl]amino]-3-(2-thienyl)propanoyl]-1-methyl-4a,8a-dihydroquinolin-2-one
@<TRIPOS>ATOM
      1 C1          3.9223    0.5483   -2.8000 C.3       1 <0>         0.0898
      2 N1          2.5516    1.0237   -2.5962 N.am      1 <0>        -0.6318
      3 C2          2.0925    1.4094   -1.2674 C.3       1 <0>         0.1989
      4 H1          2.1854    2.5052   -1.2448 H         1 <0>         0.0731
      5 C3          2.9529    0.8455   -0.1726 C.2       1 <0>        -0.1743
      6 C4          2.4453    0.7738    1.0603 C.2       1 <0>        -0.1148
      7 C5          1.0763    1.2547    1.3176 C.2       1 <0>        -0.1796
      8 C6          0.1935    1.3482    0.3071 C.2       1 <0>        -0.0891
      9 C7          0.6519    0.9332   -1.0628 C.3       1 <0>        -0.0860
     10 H2          0.5658   -0.1614   -1.1290 H         1 <0>         0.0988
     11 C8         -0.2128    1.5337   -2.1379 C.2       1 <0>         0.3447
     12 C9          0.3273    1.6258   -3.4137 C.2       1 <0>        -0.5292
     13 C10         1.6933    1.1122   -3.6389 C.2       1 <0>         0.5862
     14 O1          2.0445    0.7713   -4.7524 O.2       1 <0>        -0.5796
     15 C11        -0.4386    2.2174   -4.5085 C.2       1 <0>         0.4125
     16 O2         -1.5965    2.5374   -4.3355 O.2       1 <0>        -0.4715
     17 C12         0.2092    2.4302   -5.8524 C.3       1 <0>        -0.1475
     18 C13        -0.8025    3.0590   -6.8125 C.3       1 <0>         0.1657
     19 H3         -1.7261    2.4631   -6.8569 H         1 <0>         0.0688
     20 C14        -0.1950    3.1588   -8.1880 C.2       1 <0>        -0.0800
     21 C15        -0.3677    2.3456   -9.2585 C.2       1 <0>        -0.2022
     22 C16         0.2963    2.6366  -10.4354 C.2       1 <0>        -0.1492
     23 C17         1.1088    3.7206  -10.4810 C.2       1 <0>        -0.2330
     24 S1          0.9452    4.3745   -8.8279 S.3       1 <0>         0.1255
     25 N2         -1.1600    4.4020   -6.3365 N.3       1 <0>        -0.6455
     26 C18        -2.5091    4.7763   -6.7811 C.3       1 <0>         0.1258
     27 C19        -2.5880    4.6818   -8.3062 C.3       1 <0>         0.0975
     28 O3         -1.5547    5.4798   -8.8870 O.3       1 <0>        -0.5615
     29 C20        -3.5336    3.8263   -6.1576 C.3       1 <0>         0.0753
     30 O4         -3.5006    3.9574   -4.7350 O.3       1 <0>        -0.5619
     31 C21        -2.8109    6.2108   -6.3428 C.3       1 <0>         0.1103
     32 O5         -4.1232    6.5750   -6.7754 O.3       1 <0>        -0.6016
     33 O6         -1.4559    1.9627   -1.8743 O.3       1 <0>        -0.6043
     34 H4          4.4572    0.5488   -1.8388 H         1 <0>         0.0697
     35 H5          4.4395    1.2128   -3.5077 H         1 <0>         0.0521
     36 H6          3.8994   -0.4736   -3.2063 H         1 <0>         0.0496
     37 H7          3.9777    0.4962   -0.3667 H         1 <0>         0.1289
     38 H8          3.0487    0.3568    1.8801 H         1 <0>         0.1183
     39 H9          0.7768    1.5374    2.3376 H         1 <0>         0.1171
     40 H10        -0.8245    1.7183    0.4986 H         1 <0>         0.1367
     41 H11         0.5446    1.4630   -6.2550 H         1 <0>         0.1015
     42 H12         1.0741    3.1005   -5.7405 H         1 <0>         0.0823
     43 H13        -1.0166    1.4847   -9.1938 H         1 <0>         0.1189
     44 H14         0.1725    2.0075  -11.3045 H         1 <0>         0.1175
     45 H15         1.7011    4.0925  -11.3040 H         1 <0>         0.1723
     46 H16        -1.1332    4.4205   -5.2370 H         1 <0>         0.3701
     47 H17        -2.4599    3.6341   -8.6157 H         1 <0>         0.0381
     48 H18        -3.5683    5.0473   -8.6460 H         1 <0>         0.0421
     49 H19        -1.4527    5.5364   -9.9808 H         1 <0>         0.3844
     50 H20        -4.5390    4.0784   -6.5259 H         1 <0>         0.0318
     51 H21        -3.2901    2.7904   -6.4361 H         1 <0>         0.0353
     52 H22        -4.1722    3.3496   -4.1109 H         1 <0>         0.4048
     53 H23        -2.7542    6.2788   -5.2464 H         1 <0>         0.0479
     54 H24        -2.0743    6.8938   -6.7911 H         1 <0>         0.0502
     55 H25        -4.5182    7.5767   -6.5505 H         1 <0>         0.4000
@<TRIPOS>BOND
     1    1    2 1
     2    1   34 1
     3    1   35 1
     4    1   36 1
     5    2   13 am
     6    2    3 1
     7    3    4 1
     8    3    9 1
     9    3    5 1
    10    5    6 2
    11    5   37 1
    12    6    7 1
    13    6   38 1
    14    7    8 2
    15    7   39 1
    16    8    9 1
    17    8   40 1
    18    9   10 1
    19    9   11 1
    20   11   12 2
    21   11   33 1
    22   12   13 1
    23   12   15 1
    24   13   14 2
    25   15   17 1
    26   15   16 2
    27   17   18 1
    28   17   41 1
    29   17   42 1
    30   18   19 1
    31   18   20 1
    32   18   25 1
    33   20   24 1
    34   20   21 2
    35   21   22 1
    36   21   43 1
    37   22   23 2
    38   22   44 1
    39   23   24 1
    40   23   45 1
    41   25   26 1
    42   25   46 1
    43   26   27 1
    44   26   29 1
    45   26   31 1
    46   27   28 1
    47   27   47 1
    48   27   48 1
    49   28   49 1
    50   29   30 1
    51   29   50 1
    52   29   51 1
    53   30   52 1
    54   31   32 1
    55   31   53 1
    56   31   54 1
    57   32   55 1
@<TRIPOS>MOLECULE
ZINC35464941
   59    62     0     0     0
SMALL
USER_CHARGES

@<TRIPOS>ATOM
      1 C1          0.4404    0.6613   -1.2215 C.ar      1 <0>        -0.0337
      2 C2          1.6079    1.3676   -1.1934 C.ar      1 <0>        -0.1611
      3 C3          2.3782    1.4123   -0.0328 C.ar      1 <0>         0.1542
      4 C4          1.9706    0.7407    1.1091 C.ar      1 <0>        -0.1422
      5 C5          0.7874    0.0185    1.0978 C.ar      1 <0>         0.1655
      6 C6          0.0137   -0.0227   -0.0776 C.ar      1 <0>        -0.1674
      7 C7         -1.2341   -0.7890   -0.0787 C.2       1 <0>         0.0078
      8 C8         -1.5937   -1.4316    1.0630 C.2       1 <0>        -0.2500
      9 C9         -0.7704   -1.3473    2.2045 C.2       1 <0>         0.5094
     10 O1         -1.1045   -1.9287    3.2212 O.2       1 <0>        -0.4644
     11 O2          0.3723   -0.6432    2.1992 O.3       1 <0>        -0.2680
     12 O3          3.5369    2.1186   -0.0208 O.3       1 <0>        -0.2445
     13 C10         3.4601    3.4733   -0.1180 C.ar      1 <0>         0.0823
     14 C11         2.2250    4.1012   -0.0952 C.ar      1 <0>        -0.1470
     15 C12         2.1462    5.4774   -0.1939 C.ar      1 <0>        -0.0791
     16 C13         3.3030    6.2333   -0.3160 C.ar      1 <0>         0.1215
     17 C14         4.5409    5.6090   -0.3396 C.ar      1 <0>        -0.1733
     18 C15         4.6223    4.2300   -0.2346 C.ar      1 <0>         0.1056
     19 O4          5.8355    3.6163   -0.2510 O.3       1 <0>        -0.3092
     20 C16         6.9856    4.4557   -0.3732 C.3       1 <0>         0.2135
     21 H1          6.9727    5.2071    0.4163 H         1 <0>         0.1137
     22 C17         8.2531    3.6063   -0.2491 C.3       1 <0>         0.0685
     23 H2          9.1303    4.2512   -0.3017 H         1 <0>         0.0981
     24 C18         8.2935    2.5925   -1.3967 C.3       1 <0>         0.0843
     25 H3          7.4427    1.9160   -1.3157 H         1 <0>         0.0838
     26 C19         8.2256    3.3440   -2.7297 C.3       1 <0>         0.0917
     27 H4          8.1980    2.6276   -3.5507 H         1 <0>         0.0815
     28 C20         6.9591    4.2036   -2.7581 C.3       1 <0>         0.1016
     29 H5          6.0815    3.5600   -2.6961 H         1 <0>         0.0901
     30 O5          6.9700    5.1028   -1.6473 O.3       1 <0>        -0.3540
     31 C21         6.9142    5.0032   -4.0617 C.3       1 <0>         0.0899
     32 O6          5.6780    5.7156   -4.1412 O.3       1 <0>        -0.5600
     33 O7          9.3756    4.1814   -2.8650 O.3       1 <0>        -0.5490
     34 O8          9.5083    1.8430   -1.3299 O.3       1 <0>        -0.5622
     35 O9          8.2436    2.9141    1.0011 O.3       1 <0>        -0.5509
     36 O10         3.2228    7.5872   -0.4129 O.3       1 <0>        -0.4867
     37 C22         0.8018    6.1579   -0.1693 C.3       1 <0>        -0.0538
     38 C23         0.5386    6.7169    1.2303 C.3       1 <0>        -0.1728
     39 C24        -0.8058    7.3974    1.2549 C.2       1 <0>         0.4909
     40 O11        -1.4900    7.4320    0.2463 O.co2     1 <0>        -0.6964
     41 O12        -1.2093    7.9132    2.2833 O.co2     1 <0>        -0.7052
     42 H6         -0.1546    0.6340   -2.1224 H         1 <0>         0.1485
     43 H7          1.9371    1.8951   -2.0764 H         1 <0>         0.1446
     44 H8          2.5730    0.7797    2.0046 H         1 <0>         0.1541
     45 H9         -1.8519   -0.8416   -0.9630 H         1 <0>         0.1565
     46 H10        -2.5081   -2.0053    1.0962 H         1 <0>         0.1652
     47 H11         1.3231    3.5145   -0.0005 H         1 <0>         0.1383
     48 H12         5.4413    6.1978   -0.4355 H         1 <0>         0.1465
     49 H13         7.7432    5.7106   -4.0827 H         1 <0>         0.0655
     50 H14         6.9962    4.3222   -4.9088 H         1 <0>         0.0601
     51 H15         5.5805    6.2458   -4.9441 H         1 <0>         0.3820
     52 H16        10.2152    3.7018   -2.8508 H         1 <0>         0.3860
     53 H17         9.6195    1.3466   -0.5075 H         1 <0>         0.3933
     54 H18         8.2140    3.4961    1.7727 H         1 <0>         0.3872
     55 H19         3.2493    8.0447    0.4386 H         1 <0>         0.3900
     56 H20         0.7937    6.9726   -0.8934 H         1 <0>         0.0815
     57 H21         0.0251    5.4371   -0.4247 H         1 <0>         0.0693
     58 H22         0.5467    5.9022    1.9544 H         1 <0>         0.0551
     59 H23         1.3154    7.4377    1.4857 H         1 <0>         0.0534
@<TRIPOS>BOND
     1    1    6 ar
     2    1    2 ar
     3    1   42 1
     4    2    3 ar
     5    2   43 1
     6    3    4 ar
     7    3   12 1
     8    4    5 ar
     9    4   44 1
    10    5   11 1
    11    5    6 ar
    12    6    7 1
    13    7    8 2
    14    7   45 1
    15    8    9 1
    16    8   46 1
    17    9   10 2
    18    9   11 1
    19   12   13 1
    20   13   18 ar
    21   13   14 ar
    22   14   15 ar
    23   14   47 1
    24   15   16 ar
    25   15   37 1
    26   16   17 ar
    27   16   36 1
    28   17   18 ar
    29   17   48 1
    30   18   19 1
    31   19   20 1
    32   20   21 1
    33   20   30 1
    34   20   22 1
    35   22   23 1
    36   22   24 1
    37   22   35 1
    38   24   25 1
    39   24   26 1
    40   24   34 1
    41   26   27 1
    42   26   28 1
    43   26   33 1
    44   28   29 1
    45   28   30 1
    46   28   31 1
    47   31   32 1
    48   31   49 1
    49   31   50 1
    50   32   51 1
    51   33   52 1
    52   34   53 1
    53   35   54 1
    54   36   55 1
    55   37   38 1
    56   37   56 1
    57   37   57 1
    58   38   39 1
    59   38   58 1
    60   38   59 1
    61   39   40 2
    62   39   41 1
@<TRIPOS>MOLECULE
ZINC40795431
   49    51     0     0     0
SMALL
USER_CHARGES

@<TRIPOS>ATOM
      1 C1          0.0249    1.3989    0.3742 C.ar      1 <0>        -0.1577
      2 C2          1.2148    2.1029    0.3929 C.ar      1 <0>        -0.0799
      3 C3          2.4190    1.4276    0.3472 C.ar      1 <0>        -0.1472
      4 C4          2.4339    0.0418    0.2831 C.ar      1 <0>         0.1281
      5 C5          1.2386   -0.6622    0.2650 C.ar      1 <0>        -0.2108
      6 C6          0.0370    0.0178    0.3103 C.ar      1 <0>        -0.0795
      7 O1          3.6172   -0.6248    0.2376 O.3       1 <0>        -0.2887
      8 C7          3.5563   -2.0510    0.1726 C.3       1 <0>         0.0547
      9 C8          4.9543   -2.6121    0.1293 C.2       1 <0>         0.5113
     10 O2          5.9088   -1.8642    0.1520 O.2       1 <0>        -0.5217
     11 N1          5.1439   -3.9449    0.0655 N.am      1 <0>        -0.5031
     12 N2          6.4435   -4.4665    0.0253 N.pl3     1 <0>        -0.5167
     13 C9          6.6390   -5.8409   -0.0405 C.ar      1 <0>         0.3748
     14 C10         7.9294   -6.3725   -0.0752 C.ar      1 <0>         0.0742
     15 C11         8.0693   -7.7597   -0.1407 C.ar      1 <0>         0.3907
     16 N3          6.9753   -8.5174   -0.1674 N.ar      1 <0>        -0.5180
     17 C12         5.7750   -7.9751   -0.1330 C.ar      1 <0>         0.2910
     18 N4          5.5990   -6.6708   -0.0659 N.ar      1 <0>        -0.5570
     19 N5          9.3312   -8.3407   -0.1779 N.pl3     1 <0>        -0.6537
     20 C13         9.9863   -8.7877    1.0589 C.3       1 <0>         0.1490
     21 C14        10.3984  -10.2542    0.8964 C.3       1 <0>        -0.1072
     22 C15        11.2600  -10.4015   -0.3599 C.3       1 <0>        -0.1483
     23 C16        10.4472   -9.9891   -1.5892 C.3       1 <0>        -0.1079
     24 C17        10.0330   -8.5252   -1.4555 C.3       1 <0>         0.1505
     25 C18        11.6956  -11.8370   -0.5044 C.2       1 <0>         0.4946
     26 O3         11.8918  -12.3059   -1.6126 O.co2     1 <0>        -0.7016
     27 O4         11.8518  -12.5294    0.4869 O.co2     1 <0>        -0.7014
     28 N6          9.0562   -5.5343   -0.0455 N.pl3     1 <0>        -0.8629
     29 H1         -0.9155    1.9286    0.4142 H         1 <0>         0.1243
     30 H2          1.2027    3.1817    0.4428 H         1 <0>         0.1304
     31 H3          3.3482    1.9780    0.3610 H         1 <0>         0.1328
     32 H4          1.2475   -1.7410    0.2148 H         1 <0>         0.1294
     33 H5         -0.8938   -0.5298    0.2963 H         1 <0>         0.1264
     34 H6          3.0386   -2.4331    1.0524 H         1 <0>         0.1002
     35 H7          3.0165   -2.3511   -0.7255 H         1 <0>         0.1002
     36 H8          4.3804   -4.5431    0.0474 H         1 <0>         0.4343
     37 H9          7.2070   -3.8684    0.0434 H         1 <0>         0.4374
     38 H10         4.9086   -8.6196   -0.1565 H         1 <0>         0.1944
     39 H11        10.8705   -8.1781    1.2449 H         1 <0>         0.0503
     40 H12         9.2926   -8.6936    1.8944 H         1 <0>         0.0585
     41 H13        10.9703  -10.5702    1.7688 H         1 <0>         0.0707
     42 H14         9.5070  -10.8742    0.8009 H         1 <0>         0.0588
     43 H15        12.1389   -9.7624   -0.2745 H         1 <0>         0.0587
     44 H16        11.0537  -10.1165   -2.4859 H         1 <0>         0.0714
     45 H17         9.5553  -10.6116   -1.6613 H         1 <0>         0.0580
     46 H18         9.3702   -8.2579   -2.2785 H         1 <0>         0.0579
     47 H19        10.9212   -7.8937   -1.4791 H         1 <0>         0.0498
     48 H20         8.9459   -4.5717   -0.0913 H         1 <0>         0.3909
     49 H21         9.9446   -5.9181    0.0208 H         1 <0>         0.4093
@<TRIPOS>BOND
     1    1    6 ar
     2    1    2 ar
     3    1   29 1
     4    2    3 ar
     5    2   30 1
     6    3    4 ar
     7    3   31 1
     8    4    5 ar
     9    4    7 1
    10    5    6 ar
    11    5   32 1
    12    6   33 1
    13    7    8 1
    14    8    9 1
    15    8   34 1
    16    8   35 1
    17    9   10 2
    18    9   11 am
    19   11   12 1
    20   11   36 1
    21   12   13 1
    22   12   37 1
    23   13   18 ar
    24   13   14 ar
    25   14   15 ar
    26   14   28 1
    27   15   16 ar
    28   15   19 1
    29   16   17 ar
    30   17   18 ar
    31   17   38 1
    32   19   24 1
    33   19   20 1
    34   20   21 1
    35   20   39 1
    36   20   40 1
    37   21   22 1
    38   21   41 1
    39   21   42 1
    40   22   23 1
    41   22   25 1
    42   22   43 1
    43   23   24 1
    44   23   44 1
    45   23   45 1
    46   24   46 1
    47   24   47 1
    48   25   26 2
    49   25   27 1
    50   28   48 1
    51   28   49 1
@<TRIPOS>MOLECULE
ZINC21083857
   44    46     0     0     0
SMALL
USER_CHARGES

@<TRIPOS>ATOM
      1 C1         -0.0187    1.5258    0.0104 C.3       1 <0>        -0.1523
      2 C2          0.0021   -0.0041    0.0020 C.3       1 <0>         0.0511
      3 O1          0.6932   -0.4774    1.1597 O.3       1 <0>        -0.3062
      4 C3          0.8021   -1.8252    1.3058 C.ar      1 <0>         0.1006
      5 C4          0.2612   -2.6694    0.3540 C.ar      1 <0>        -0.1716
      6 C5          0.3749   -4.0535    0.5072 C.ar      1 <0>        -0.0159
      7 C6          1.0347   -4.5775    1.6218 C.ar      1 <0>        -0.0966
      8 C7          1.5716   -3.7288    2.5670 C.ar      1 <0>        -0.1082
      9 C8          1.4635   -2.3546    2.4115 C.ar      1 <0>         0.0881
     10 O2          1.9995   -1.5225    3.3435 O.3       1 <0>        -0.4864
     11 C9         -0.2003   -4.9588   -0.5043 C.2       1 <0>         0.0873
     12 N1         -0.0937   -6.2446   -0.3602 N.2       1 <0>        -0.1816
     13 N2         -0.6404   -7.1048   -1.3214 N.pl3     1 <0>        -0.5483
     14 C10        -0.5268   -8.4742   -1.1680 C.2       1 <0>         0.5436
     15 N3          0.0621   -9.0949   -0.1673 N.2       1 <0>        -0.5177
     16 C11        -0.0183  -10.4174   -0.3483 C.2       1 <0>         0.2151
     17 N4         -0.6598  -10.6561   -1.4674 N.2       1 <0>        -0.3246
     18 N5         -1.0055   -9.4103   -2.0151 N.pl3     1 <0>        -0.5095
     19 S1          0.6321  -11.6410    0.7399 S.3       1 <0>         0.1005
     20 C12         0.2003  -13.2119   -0.0579 C.3       1 <0>        -0.0790
     21 C13         0.7056  -14.3571    0.7814 C.2       1 <0>         0.4407
     22 O3          0.4986  -15.6270    0.3826 O.3       1 <0>        -0.6582
     23 N6          1.3423  -14.1190    1.8921 N.2       1 <0>        -0.6536
     24 C14         1.7995  -15.1552    2.6515 C.2       1 <0>         0.5199
     25 N7          1.6654  -16.4395    2.3776 N.2       1 <0>        -0.5621
     26 H1          2.7304  -14.2330    4.2745 H         1 <0>         0.4254
     27 C15         2.2331  -17.1648    3.3387 C.2       1 <0>         0.1907
     28 N8          2.7384  -16.3651    4.2407 N.2       1 <0>        -0.3761
     29 N9          2.4777  -15.0513    3.8191 N.pl3     1 <0>        -0.5136
     30 H2          1.0039    1.9031    0.0027 H         1 <0>         0.0670
     31 H3         -0.5459    1.8868   -0.8726 H         1 <0>         0.0780
     32 H4         -0.5289    1.8773    0.9072 H         1 <0>         0.0662
     33 H5         -1.0205   -0.3814    0.0098 H         1 <0>         0.0621
     34 H6          0.5123   -0.3556   -0.8948 H         1 <0>         0.0625
     35 H7         -0.2483   -2.2600   -0.5058 H         1 <0>         0.1356
     36 H8          1.1239   -5.6469    1.7433 H         1 <0>         0.1474
     37 H9          2.0814   -4.1351    3.4281 H         1 <0>         0.1427
     38 H10         1.3939   -1.2946    4.0621 H         1 <0>         0.3879
     39 H11        -0.7104   -4.5523   -1.3651 H         1 <0>         0.1205
     40 H12        -1.0985   -6.7397   -2.0946 H         1 <0>         0.3983
     41 H13        -0.8828  -13.2838   -0.1563 H         1 <0>         0.1020
     42 H14         0.6586  -13.2557   -1.0459 H         1 <0>         0.1021
     43 H15         2.2700  -18.2438    3.3686 H         1 <0>         0.1928
     44 H16        -1.4904   -9.2531   -2.8404 H         1 <0>         0.4333
@<TRIPOS>BOND
     1    1    2 1
     2    1   30 1
     3    1   31 1
     4    1   32 1
     5    2    3 1
     6    2   33 1
     7    2   34 1
     8    3    4 1
     9    4    9 ar
    10    4    5 ar
    11    5    6 ar
    12    5   35 1
    13    6    7 ar
    14    6   11 1
    15    7    8 ar
    16    7   36 1
    17    8    9 ar
    18    8   37 1
    19    9   10 1
    20   10   38 1
    21   11   12 2
    22   11   39 1
    23   12   13 1
    24   13   14 1
    25   13   40 1
    26   14   18 1
    27   14   15 2
    28   15   16 1
    29   16   17 2
    30   16   19 1
    31   17   18 1
    32   18   44 1
    33   19   20 1
    34   20   21 1
    35   20   41 1
    36   20   42 1
    37   21   22 1
    38   21   23 2
    39   23   24 1
    40   24   25 2
    41   24   29 1
    42   25   27 1
    43   26   29 1
    44   27   43 1
    45   27   28 2
    46   28   29 1
@<TRIPOS>MOLECULE
ZINC04546317
   46    46     0     0     0
SMALL
USER_CHARGES
6-[3-acetylamino-1-(1,2-dihydroxyethyl)-2-hydroxy-4-oxo-butoxy]-4,5-dihydroxy-5,6-dihydro-4H-pyran-2-carboxylic acid
@<TRIPOS>ATOM
      1 C1          1.2008   -2.9538   -2.1619 C.3       1 <0>        -0.1771
      2 C2          1.3457   -1.6677   -1.3898 C.2       1 <0>         0.5194
      3 O1          2.3830   -1.4210   -0.8119 O.2       1 <0>        -0.5394
      4 N1          0.3226   -0.7917   -1.3416 N.am      1 <0>        -0.7239
      5 C3          0.4635    0.4585   -0.5910 C.3       1 <0>         0.0559
      6 H1          1.4043    0.7888   -0.6673 H         1 <0>         0.1181
      7 C4          0.1329    0.2140    0.8588 C.2       1 <0>         0.3436
      8 O2         -0.1873   -0.8906    1.2271 O.2       1 <0>        -0.4445
      9 C5         -0.4932    1.5069   -1.1625 C.3       1 <0>         0.1003
     10 H2         -0.3260    2.4616   -0.6636 H         1 <0>         0.1344
     11 C6         -0.2399    1.6644   -2.6631 C.3       1 <0>         0.0317
     12 H3         -0.3134    0.6910   -3.1481 H         1 <0>         0.0700
     13 C7         -1.2828    2.6116   -3.2597 C.3       1 <0>         0.0982
     14 H4         -2.2823    2.2403   -3.0337 H         1 <0>         0.0735
     15 C8         -1.1086    4.0070   -2.6567 C.3       1 <0>         0.0876
     16 O3          0.2306    4.4559   -2.8736 O.3       1 <0>        -0.5242
     17 O4         -1.1091    2.6800   -4.6765 O.3       1 <0>        -0.5273
     18 O5          1.0673    2.2029   -2.8716 O.3       1 <0>        -0.2941
     19 C9          1.8855    1.4211   -3.7442 C.3       1 <0>         0.2615
     20 H5          1.8689    0.3784   -3.4271 H         1 <0>         0.0620
     21 C10         3.3265    1.9484   -3.7123 C.3       1 <0>         0.0990
     22 H6          3.7047    1.9229   -2.6904 H         1 <0>         0.0683
     23 C11         4.1868    1.0481   -4.6052 C.3       1 <0>         0.1241
     24 H7          4.3417    0.0887   -4.1115 H         1 <0>         0.0596
     25 C12         3.4872    0.8289   -5.9191 C.2       1 <0>        -0.3208
     26 C13         2.1932    1.0636   -6.0795 C.2       1 <0>         0.1066
     27 O6          1.3974    1.5252   -5.0846 O.3       1 <0>        -0.2897
     28 C14         1.5917    0.8113   -7.4008 C.2       1 <0>         0.5003
     29 O7          2.2599    0.3196   -8.2887 O.co2     1 <0>        -0.6165
     30 O8          5.4502    1.6742   -4.8368 O.3       1 <0>        -0.5609
     31 O9          3.3601    3.2890   -4.2060 O.3       1 <0>        -0.5216
     32 O10        -1.8424    1.0876   -0.9486 O.3       1 <0>        -0.5433
     33 H8          0.9978   -2.7282   -3.2088 H         1 <0>         0.0931
     34 H9          2.1238   -3.5288   -2.0865 H         1 <0>         0.0952
     35 H10         0.3761   -3.5346   -1.7488 H         1 <0>         0.0912
     36 H11        -0.5070   -0.9891   -1.8038 H         1 <0>         0.4005
     37 H12         0.1824    1.0266    1.5684 H         1 <0>         0.1058
     38 H13        -1.8049    4.6978   -3.1321 H         1 <0>         0.0453
     39 H14        -1.3098    3.9678   -1.5861 H         1 <0>         0.0484
     40 H15         0.4348    5.3021   -2.4525 H         1 <0>         0.3609
     41 H16        -1.1928    1.8272   -5.1246 H         1 <0>         0.3855
     42 H17         4.0596    0.4674   -6.7605 H         1 <0>         0.1347
     43 H18         6.0479    1.1590   -5.3958 H         1 <0>         0.3846
     44 H19         4.2429    3.6835   -4.2131 H         1 <0>         0.3760
     45 H20        -2.0626    0.2432   -1.3652 H         1 <0>         0.3759
     46 O11         0.3004    1.1261   -7.6246 O.co2     1 <0>        -0.7285
@<TRIPOS>BOND
     1    1    2 1
     2    1   33 1
     3    1   34 1
     4    1   35 1
     5    2    3 2
     6    2    4 am
     7    4    5 1
     8    4   36 1
     9    5    6 1
    10    5    7 1
    11    5    9 1
    12    7    8 2
    13    7   37 1
    14    9   10 1
    15    9   11 1
    16    9   32 1
    17   11   12 1
    18   11   13 1
    19   11   18 1
    20   13   14 1
    21   13   15 1
    22   13   17 1
    23   15   16 1
    24   15   38 1
    25   15   39 1
    26   16   40 1
    27   17   41 1
    28   18   19 1
    29   19   20 1
    30   19   27 1
    31   19   21 1
    32   21   22 1
    33   21   23 1
    34   21   31 1
    35   23   24 1
    36   23   25 1
    37   23   30 1
    38   25   26 2
    39   25   42 1
    40   26   27 1
    41   26   28 1
    42   28   29 2
    43   28   46 1
    44   30   43 1
    45   31   44 1
    46   32   45 1
@<TRIPOS>MOLECULE
ZINC20832544
   51    53     0     0     0
SMALL
USER_CHARGES
3-[[5-[(N'E)-N'-[(2-hydroxy-5-nitro-phenyl)methylene]hydrazino]-4H-1,2,4-triazol-3-yl]sulfanyl]-N-(4-sulfamoylphenyl)propanamide
@<TRIPOS>ATOM
      1 C1          9.0362   -4.2769   -0.9050 C.ar      1 <0>        -0.1693
      2 C2         10.3861   -4.0101   -1.0239 C.ar      1 <0>        -0.0064
      3 C3         10.9242   -2.8821   -0.4322 C.ar      1 <0>        -0.6835
      4 C4         10.1121   -2.0142    0.2745 C.ar      1 <0>         0.0077
      5 C5          8.7604   -2.2721    0.3920 C.ar      1 <0>        -0.1471
      6 C6          8.2170   -3.4043   -0.2007 C.ar      1 <0>         0.2141
      7 N1          6.8478   -3.6684   -0.0837 N.am      1 <0>        -0.6918
      8 C7          5.9640   -2.6510   -0.0712 C.2       1 <0>         0.5215
      9 O1          6.3591   -1.5043   -0.0769 O.2       1 <0>        -0.5051
     10 C8          4.4847   -2.9382   -0.0503 C.3       1 <0>        -0.1246
     11 C9          3.7092   -1.6194   -0.0394 C.3       1 <0>        -0.1096
     12 S1          1.9326   -1.9643   -0.0143 S.3       1 <0>         0.0521
     13 C10         1.3195   -0.3659   -0.0058 C.2       1 <0>         0.1387
     14 N2          0.0018   -0.0048    0.0128 N.2       1 <0>        -0.5259
     15 C11        -0.0171    1.3683    0.0125 C.2       1 <0>         0.4765
     16 N3          1.2619    1.7861   -0.0058 N.pl3     1 <0>        -0.4046
     17 N4          2.0476    0.7681   -0.0166 N.2       1 <0>        -0.3214
     18 N5         -1.1049    2.1460    0.0227 N.pl3     1 <0>        -0.4954
     19 N6         -0.9799    3.4299    0.0210 N.2       1 <0>        -0.2310
     20 C12        -2.0518    4.1963    0.0311 C.2       1 <0>         0.1056
     21 C13        -1.9146    5.6064    0.0293 C.ar      1 <0>        -0.1955
     22 C14        -3.0541    6.4295    0.0399 C.ar      1 <0>         0.0251
     23 C15        -2.9142    7.7866    0.0380 C.ar      1 <0>        -0.1194
     24 C16        -1.6517    8.3663    0.0261 C.ar      1 <0>        -0.0143
     25 C17        -0.5171    7.5786    0.0160 C.ar      1 <0>        -0.2316
     26 C18        -0.6317    6.1969    0.0226 C.ar      1 <0>         0.3285
     27 O2          0.4782    5.4195    0.0180 O.3       1 <0>        -0.6241
     28 N7         -4.1175    8.6484    0.0493 N.pl3     1 <0>         0.0299
     29 O3         -5.3169    8.1046    0.0610 O.2       1 <0>        -0.2559
     30 O4         -3.9888    9.9591    0.0476 O.3       1 <0>        -0.2538
     31 S2         12.6483   -2.5495   -0.5797 S.o2      1 <0>         2.6380
     32 O5         13.0933   -3.2234   -1.7489 O.2       1 <0>        -0.9892
     33 O6         12.8086   -1.1491   -0.3999 O.2       1 <0>        -0.9523
     34 N8         13.3993   -3.2803    0.7026 N.pl3     1 <0>        -1.1629
     35 H1          8.6173   -5.1606   -1.3633 H         1 <0>         0.1376
     36 H2         11.0229   -4.6858   -1.5756 H         1 <0>         0.1436
     37 H3         10.5353   -1.1337    0.7349 H         1 <0>         0.1453
     38 H4          8.1266   -1.5937    0.9438 H         1 <0>         0.1506
     39 H5          6.4929   -4.7064   -0.0019 H         1 <0>         0.4415
     40 H6          4.2109   -3.5172   -0.9447 H         1 <0>         0.1116
     41 H7          4.2363   -3.5171    0.8514 H         1 <0>         0.1117
     42 H8          3.9830   -1.0405    0.8550 H         1 <0>         0.1027
     43 H9          3.9576   -1.0405   -0.9411 H         1 <0>         0.1024
     44 H10        -2.1063    1.6909    0.0325 H         1 <0>         0.4101
     45 H11        -3.0532    3.7412    0.0409 H         1 <0>         0.1092
     46 H12        -4.0396    5.9878    0.0492 H         1 <0>         0.1341
     47 H13        -1.5566    9.4421    0.0252 H         1 <0>         0.1301
     48 H14         0.4597    8.0393    0.0071 H         1 <0>         0.1269
     49 H15        14.4823   -3.0956    0.6471 H         1 <0>         0.4121
     50 H16        13.2099   -4.3634    0.6698 H         1 <0>         0.4076
     51 H17         1.4889    2.8624   -0.0094 H         1 <0>         0.5002
@<TRIPOS>BOND
     1    1    6 ar
     2    1    2 ar
     3    1   35 1
     4    2    3 ar
     5    2   36 1
     6    3    4 ar
     7    3   31 1
     8    4    5 ar
     9    4   37 1
    10    5    6 ar
    11    5   38 1
    12    6    7 1
    13    7    8 am
    14    7   39 1
    15    8    9 2
    16    8   10 1
    17   10   11 1
    18   10   40 1
    19   10   41 1
    20   11   12 1
    21   11   42 1
    22   11   43 1
    23   12   13 1
    24   13   17 2
    25   13   14 1
    26   14   15 2
    27   15   16 1
    28   15   18 1
    29   16   17 1
    30   16   51 1
    31   18   19 1
    32   18   44 1
    33   19   20 2
    34   20   21 1
    35   20   45 1
    36   21   26 ar
    37   21   22 ar
    38   22   23 ar
    39   22   46 1
    40   23   24 ar
    41   23   28 1
    42   24   25 ar
    43   24   47 1
    44   25   26 ar
    45   25   48 1
    46   26   27 1
    47   28   29 2
    48   28   30 1
    49   31   32 2
    50   31   33 2
    51   31   34 1
    52   34   49 1
    53   34   50 1
@<TRIPOS>MOLECULE
ZINC31156646
   51    52     0     0     0
SMALL
USER_CHARGES
2-[(2S,3Z,4S)-3-ethylidene-5-methoxycarbonyl-2-[(2S,3R,4S,5S,6R)-3,4,5-trihydroxy-6-(hydroxymethyl)tetrahydropyran-2-yl]oxy-4H-pyran-4-yl]acetic acid
@<TRIPOS>ATOM
      1 C1         -0.3400   -2.5444   -0.5383 C.3       1 <0>        -0.1191
      2 C2         -0.5400   -1.1076   -0.1301 C.2       1 <0>        -0.0619
      3 C3          0.2387   -0.1738   -0.6177 C.2       1 <0>        -0.1887
      4 C4          0.0742    1.2839   -0.2353 C.3       1 <0>         0.0365
      5 H1         -0.4776    1.3669    0.7127 H         1 <0>         0.1027
      6 C5          1.4465    1.8867   -0.0782 C.2       1 <0>        -0.2884
      7 C6          2.5533    1.2612   -0.4800 C.2       1 <0>         0.1826
      8 O1          2.5866    0.0443   -1.0384 O.3       1 <0>        -0.3346
      9 C7          1.3551   -0.4927   -1.5958 C.3       1 <0>         0.2908
     10 H2          1.1867   -0.0828   -2.6026 H         1 <0>         0.1027
     11 O2          1.4698   -1.9079   -1.7577 O.3       1 <0>        -0.3068
     12 C8          2.4213   -2.3045   -2.7473 C.3       1 <0>         0.2500
     13 H3          3.3666   -1.7884   -2.5237 H         1 <0>         0.0750
     14 C9          2.5510   -3.8299   -2.7485 C.3       1 <0>         0.1196
     15 H4          1.5720   -4.3168   -2.8691 H         1 <0>         0.0813
     16 C10         3.5266   -4.2507   -3.8519 C.3       1 <0>         0.1012
     17 H5          4.5509   -3.9129   -3.6359 H         1 <0>         0.0725
     18 C11         3.0268   -3.7085   -5.1945 C.3       1 <0>         0.0646
     19 H6          2.0829   -4.1865   -5.4954 H         1 <0>         0.0769
     20 C12         2.8789   -2.1878   -5.0986 C.3       1 <0>         0.0710
     21 H7          3.8352   -1.7084   -4.8426 H         1 <0>         0.0775
     22 O3          1.9825   -1.8639   -4.0339 O.3       1 <0>        -0.3835
     23 C13         2.3231   -1.6449   -6.4166 C.3       1 <0>         0.0947
     24 O4          2.2933   -0.2170   -6.3689 O.3       1 <0>        -0.5881
     25 O5          3.9660   -4.0332   -6.2214 O.3       1 <0>        -0.5923
     26 O6          3.5977   -5.6768   -3.9088 O.3       1 <0>        -0.5914
     27 O7          3.0451   -4.2681   -1.4812 O.3       1 <0>        -0.5743
     28 C14         1.5648    3.1652    0.5180 C.2       1 <0>         0.5311
     29 O8          2.6436    3.7271    0.5433 O.2       1 <0>        -0.5399
     30 O9          0.4811    3.7605    1.0583 O.3       1 <0>        -0.3411
     31 C15         0.6453    5.0980    1.5339 C.3       1 <0>         0.0334
     32 C16        -0.6915    2.0228   -1.3347 C.3       1 <0>        -0.1460
     33 C17        -2.1029    1.4992   -1.4028 C.2       1 <0>         0.4676
     34 O10        -2.4956    0.7114   -0.5751 O.co2     1 <0>        -0.6336
     35 O11        -2.9239    1.9080   -2.3829 O.co2     1 <0>        -0.7785
     36 H8         -1.0826   -3.1768   -0.0298 H         1 <0>         0.0497
     37 H9          0.6725   -2.8683   -0.2557 H         1 <0>         0.0822
     38 H10        -0.4640   -2.6368   -1.6274 H         1 <0>         0.0704
     39 H11        -1.3398   -0.8429    0.5772 H         1 <0>         0.1372
     40 H12         3.5332    1.7468   -0.3618 H         1 <0>         0.1787
     41 H13         2.9661   -1.9707   -7.2475 H         1 <0>         0.0572
     42 H14         1.3034   -2.0280   -6.5701 H         1 <0>         0.0569
     43 H15         1.9218    0.3545   -7.2322 H         1 <0>         0.4141
     44 H16         3.7750   -3.7233   -7.2594 H         1 <0>         0.4119
     45 H17         4.2521   -6.1659   -4.6454 H         1 <0>         0.4196
     46 H18         3.2041   -5.3403   -1.2937 H         1 <0>         0.4173
     47 H19        -0.3081    5.4602    1.9461 H         1 <0>         0.1003
     48 H20         0.9554    5.7475    0.7020 H         1 <0>         0.0574
     49 H21         1.4149    5.1159    2.3196 H         1 <0>         0.0568
     50 H22        -0.7103    3.0991   -1.1085 H         1 <0>         0.0697
     51 H23        -0.1930    1.8600   -2.3016 H         1 <0>         0.0571
@<TRIPOS>BOND
     1    1    2 1
     2    1   36 1
     3    1   37 1
     4    1   38 1
     5    2    3 2
     6    2   39 1
     7    3    9 1
     8    3    4 1
     9    4    5 1
    10    4    6 1
    11    4   32 1
    12    6    7 2
    13    6   28 1
    14    7    8 1
    15    7   40 1
    16    8    9 1
    17    9   10 1
    18    9   11 1
    19   11   12 1
    20   12   13 1
    21   12   22 1
    22   12   14 1
    23   14   15 1
    24   14   16 1
    25   14   27 1
    26   16   17 1
    27   16   18 1
    28   16   26 1
    29   18   19 1
    30   18   20 1
    31   18   25 1
    32   20   21 1
    33   20   22 1
    34   20   23 1
    35   23   24 1
    36   23   41 1
    37   23   42 1
    38   24   43 1
    39   25   44 1
    40   26   45 1
    41   27   46 1
    42   28   29 2
    43   28   30 1
    44   30   31 1
    45   31   47 1
    46   31   48 1
    47   31   49 1
    48   32   33 1
    49   32   50 1
    50   32   51 1
    51   33   34 2
    52   33   35 1
@<TRIPOS>MOLECULE
ZINC13783218
   50    51     0     0     0
SMALL
USER_CHARGES

@<TRIPOS>ATOM
      1 C1         -0.0166    1.3733    0.0096 C.ar      1 <0>        -0.0952
      2 C2          1.1861    2.0890    0.0020 C.ar      1 <0>        -0.0397
      3 C3          2.4053    1.4009   -0.0134 C.ar      1 <0>        -0.1129
      4 C4          2.4145    0.0204   -0.0209 C.ar      1 <0>         0.0753
      5 C5          1.2117   -0.6856   -0.0137 C.ar      1 <0>         0.0747
      6 C6          0.0021   -0.0041    0.0020 C.ar      1 <0>        -0.1271
      7 O1          1.2237   -2.0437   -0.0220 O.3       1 <0>        -0.4895
      8 O2          3.5969   -0.6514   -0.0358 O.3       1 <0>        -0.4889
      9 C7          1.1693    3.5585    0.0095 C.2       1 <0>        -0.0573
     10 C8         -0.0083    4.2205    0.0239 C.2       1 <0>        -0.1301
     11 C9         -0.0245    5.6381    0.0312 C.2       1 <0>         0.4954
     12 O3          1.0220    6.2584    0.0245 O.2       1 <0>        -0.5272
     13 O4         -1.2006    6.2993    0.0455 O.3       1 <0>        -0.2907
     14 C10        -1.1422    7.7271    0.0522 C.3       1 <0>         0.0435
     15 H1         -0.2333    8.0512    0.5591 H         1 <0>         0.0793
     16 C11        -1.1349    8.2362   -1.3662 C.2       1 <0>         0.4944
     17 O5         -1.2678    7.4568   -2.2943 O.co2     1 <0>        -0.6906
     18 O6         -0.9962    9.4274   -1.5857 O.co2     1 <0>        -0.6782
     19 C12        -2.3627    8.2841    0.7877 C.3       1 <0>         0.0435
     20 H2         -3.2716    7.9600    0.2807 H         1 <0>         0.0794
     21 O7         -2.3042    9.7119    0.7943 O.3       1 <0>        -0.2907
     22 C13        -3.4804   10.3731    0.8086 C.2       1 <0>         0.4954
     23 O8         -4.5268    9.7528    0.8153 O.2       1 <0>        -0.5272
     24 C14        -3.4966   11.7907    0.8159 C.2       1 <0>        -0.1301
     25 C15        -4.6742   12.4527    0.8303 C.2       1 <0>        -0.0572
     26 C16        -4.6910   13.9222    0.8379 C.ar      1 <0>        -0.0397
     27 C17        -5.9101   14.6103    0.8586 C.ar      1 <0>        -0.1129
     28 C18        -5.9193   15.9908    0.8661 C.ar      1 <0>         0.0753
     29 C19        -4.7166   16.6968    0.8526 C.ar      1 <0>         0.0746
     30 C20        -3.5070   16.0153    0.8315 C.ar      1 <0>        -0.1271
     31 C21        -3.4882   14.6379    0.8302 C.ar      1 <0>        -0.0953
     32 O9         -4.7286   18.0549    0.8595 O.3       1 <0>        -0.4893
     33 O10        -7.1016   16.6626    0.8862 O.3       1 <0>        -0.4887
     34 C22        -2.3700    7.7750    2.2061 C.2       1 <0>         0.4950
     35 O11        -2.2371    8.5544    3.1342 O.co2     1 <0>        -0.6913
     36 O12        -2.5087    6.5838    2.4255 O.co2     1 <0>        -0.6785
     37 H3         -0.9589    1.9007    0.0259 H         1 <0>         0.1436
     38 H4          3.3361    1.9486   -0.0197 H         1 <0>         0.1388
     39 H5         -0.9266   -0.5553    0.0079 H         1 <0>         0.1358
     40 H6          1.2356   -2.4423    0.8590 H         1 <0>         0.3828
     41 H7          3.9473   -0.8504    0.8433 H         1 <0>         0.3833
     42 H8          2.0983    4.1092    0.0036 H         1 <0>         0.1404
     43 H9         -0.9373    3.6698    0.0298 H         1 <0>         0.1403
     44 H10        -2.5675   12.3414    0.8100 H         1 <0>         0.1403
     45 H11        -5.6032   11.9020    0.8362 H         1 <0>         0.1404
     46 H12        -6.8408   14.0625    0.8683 H         1 <0>         0.1388
     47 H13        -2.5784   16.5666    0.8204 H         1 <0>         0.1358
     48 H14        -2.5458   14.1104    0.8187 H         1 <0>         0.1436
     49 H15        -4.7195   18.4438    1.7448 H         1 <0>         0.3826
     50 H16        -7.4312   16.8521    1.7753 H         1 <0>         0.3832
@<TRIPOS>BOND
     1    1    6 ar
     2    1    2 ar
     3    1   37 1
     4    2    3 ar
     5    2    9 1
     6    3    4 ar
     7    3   38 1
     8    4    5 ar
     9    4    8 1
    10    5    6 ar
    11    5    7 1
    12    6   39 1
    13    7   40 1
    14    8   41 1
    15    9   10 2
    16    9   42 1
    17   10   11 1
    18   10   43 1
    19   11   12 2
    20   11   13 1
    21   13   14 1
    22   14   15 1
    23   14   16 1
    24   14   19 1
    25   16   17 2
    26   16   18 1
    27   19   20 1
    28   19   21 1
    29   19   34 1
    30   21   22 1
    31   22   23 2
    32   22   24 1
    33   24   25 2
    34   24   44 1
    35   25   26 1
    36   25   45 1
    37   26   31 ar
    38   26   27 ar
    39   27   28 ar
    40   27   46 1
    41   28   29 ar
    42   28   33 1
    43   29   30 ar
    44   29   32 1
    45   30   31 ar
    46   30   47 1
    47   31   48 1
    48   32   49 1
    49   33   50 1
    50   34   35 2
    51   34   36 1
@<TRIPOS>MOLECULE
ZINC44171895
   49    50     0     0     0
SMALL
USER_CHARGES

@<TRIPOS>ATOM
      1 C1         -0.0184    1.5028    0.0103 C.3       1 <0>        -0.1721
      2 C2          0.0021   -0.0041    0.0020 C.2       1 <0>         0.5116
      3 O1          1.0605   -0.5961   -0.0113 O.2       1 <0>        -0.5272
      4 N1         -1.1558   -0.6938    0.0094 N.am      1 <0>        -0.7160
      5 C3         -1.1360   -2.1586    0.0013 C.3       1 <0>         0.1453
      6 H1         -0.2840   -2.5145    0.5806 H         1 <0>         0.0966
      7 C4         -1.0201   -2.6610   -1.4411 C.3       1 <0>         0.0833
      8 H2         -1.8447   -2.2638   -2.0329 H         1 <0>         0.1080
      9 C5         -1.0787   -4.1917   -1.4432 C.3       1 <0>        -0.1456
     10 C6         -2.3777   -4.6458   -0.7723 C.3       1 <0>         0.2157
     11 O2         -2.4364   -4.1189    0.5547 O.3       1 <0>        -0.3860
     12 C7         -2.4321   -2.6912    0.6178 C.3       1 <0>         0.0621
     13 H3         -3.2855   -2.3012    0.0631 H         1 <0>         0.1192
     14 C8         -2.5244   -2.2433    2.0778 C.3       1 <0>         0.0951
     15 H4         -2.6100   -1.1575    2.1200 H         1 <0>         0.1086
     16 C9         -3.7550   -2.8776    2.7291 C.3       1 <0>         0.0810
     17 H5         -3.6694   -3.9634    2.6869 H         1 <0>         0.1157
     18 C10        -3.8473   -2.4297    4.1891 C.3       1 <0>         0.0479
     19 O3         -4.9276   -3.1117    4.8293 O.3       1 <0>        -0.5617
     20 O4         -4.9304   -2.4649    2.0290 O.3       1 <0>        -0.5328
     21 O5         -1.3490   -2.6560    2.7779 O.3       1 <0>        -0.5513
     22 C11        -3.5558   -4.1419   -1.5656 C.2       1 <0>         0.4723
     23 O6         -4.4011   -4.9244   -1.9653 O.co2     1 <0>        -0.6484
     24 O7         -3.6636   -2.9519   -1.8078 O.co2     1 <0>        -0.6688
     25 O8         -2.4134   -6.0734   -0.7203 O.3       1 <0>        -0.2909
     26 C12        -3.5080   -6.6428   -0.1506 C.ar      1 <0>         0.1558
     27 C13        -4.5294   -5.8441    0.3429 C.ar      1 <0>        -0.1271
     28 C14        -5.6412   -6.4254    0.9211 C.ar      1 <0>        -0.0977
     29 C15        -5.7364   -7.8020    1.0086 C.ar      1 <0>        -0.1681
     30 C16        -4.7196   -8.6002    0.5179 C.ar      1 <0>        -0.1037
     31 C17        -3.6085   -8.0240   -0.0668 C.ar      1 <0>        -0.1670
     32 O9          0.2217   -2.2277   -1.9999 O.3       1 <0>        -0.5509
     33 H6          1.0042    1.8801    0.0026 H         1 <0>         0.0871
     34 H7         -0.5455    1.8639   -0.8728 H         1 <0>         0.0844
     35 H8         -0.5286    1.8543    0.9071 H         1 <0>         0.0819
     36 H9         -2.0023   -0.2203    0.0200 H         1 <0>         0.3956
     37 H10        -1.0525   -4.5558   -2.4702 H         1 <0>         0.0783
     38 H11        -0.2261   -4.5896   -0.8928 H         1 <0>         0.0747
     39 H12        -2.9144   -2.6655    4.7012 H         1 <0>         0.0609
     40 H13        -4.0219   -1.3545    4.2290 H         1 <0>         0.0445
     41 H14        -5.0453   -2.8760    5.7597 H         1 <0>         0.3741
     42 H15        -5.0706   -1.5081    2.0256 H         1 <0>         0.3668
     43 H16        -1.2087   -3.6127    2.7813 H         1 <0>         0.3842
     44 H17        -4.4552   -4.7688    0.2754 H         1 <0>         0.1390
     45 H18        -6.4366   -5.8040    1.3054 H         1 <0>         0.1140
     46 H19        -6.6063   -8.2545    1.4613 H         1 <0>         0.1105
     47 H20        -4.7962   -9.6752    0.5878 H         1 <0>         0.1161
     48 H21        -2.8166   -8.6480   -0.4539 H         1 <0>         0.1175
     49 H22         0.3619   -2.5110   -2.9138 H         1 <0>         0.3670
@<TRIPOS>BOND
     1    1    2 1
     2    1   33 1
     3    1   34 1
     4    1   35 1
     5    2    3 2
     6    2    4 am
     7    4    5 1
     8    4   36 1
     9    5    6 1
    10    5   12 1
    11    5    7 1
    12    7    8 1
    13    7    9 1
    14    7   32 1
    15    9   10 1
    16    9   37 1
    17    9   38 1
    18   10   11 1
    19   10   22 1
    20   10   25 1
    21   11   12 1
    22   12   13 1
    23   12   14 1
    24   14   15 1
    25   14   16 1
    26   14   21 1
    27   16   17 1
    28   16   18 1
    29   16   20 1
    30   18   19 1
    31   18   39 1
    32   18   40 1
    33   19   41 1
    34   20   42 1
    35   21   43 1
    36   22   23 2
    37   22   24 1
    38   25   26 1
    39   26   31 ar
    40   26   27 ar
    41   27   28 ar
    42   27   44 1
    43   28   29 ar
    44   28   45 1
    45   29   30 ar
    46   29   46 1
    47   30   31 ar
    48   30   47 1
    49   31   48 1
    50   32   49 1
@<TRIPOS>MOLECULE
ZINC03840155
   57    58     0     0     0
SMALL
USER_CHARGES
2-[1-[[3-(2-carbamoylethylcarbamoyl)-5,6-dihydroxy-1-cyclohex-2-enyl]carbamoylmethyl]cyclopentyl]acetic acid
@<TRIPOS>ATOM
      1 C1         -6.8790   -2.2483    5.2033 C.3       1 <0>        -0.1278
      2 C2         -5.5011   -2.7451    4.6996 C.3       1 <0>        -0.1260
      3 C3         -5.3526   -2.1001    3.3061 C.3       1 <0>        -0.1036
      4 C4         -6.2580   -0.8560    3.2990 C.3       1 <0>        -0.0189
      5 C5         -6.9260   -0.7877    4.6878 C.3       1 <0>        -0.1049
      6 C6         -5.4195    0.4010    3.0584 C.3       1 <0>        -0.1339
      7 C7         -4.7066    0.2837    1.7359 C.2       1 <0>         0.5217
      8 O1         -4.7693   -0.7487    1.1026 O.2       1 <0>        -0.5291
      9 N1         -3.9992    1.3261    1.2569 N.am      1 <0>        -0.7186
     10 C8         -3.3061    1.2121   -0.0288 C.3       1 <0>         0.1785
     11 H1         -3.8991    0.5970   -0.7056 H         1 <0>         0.1158
     12 C9         -1.9673    0.5668    0.1810 C.2       1 <0>        -0.0562
     13 C10        -0.8309    1.2292    0.2013 C.2       1 <0>        -0.1762
     14 C11        -0.7256    2.7125   -0.0029 C.3       1 <0>        -0.1120
     15 C12        -2.0922    3.3703    0.1988 C.3       1 <0>         0.0738
     16 H2         -2.3669    3.3282    1.2528 H         1 <0>         0.0700
     17 C13        -3.1282    2.6059   -0.6345 C.3       1 <0>         0.1095
     18 H3         -2.7773    2.5164   -1.6626 H         1 <0>         0.0762
     19 O2         -4.3738    3.3060   -0.6117 O.3       1 <0>        -0.5420
     20 O3         -2.0371    4.7327   -0.2288 O.3       1 <0>        -0.5605
     21 C14         0.4088    0.4716    0.4315 C.2       1 <0>         0.5531
     22 O4          0.3634   -0.7318    0.6012 O.2       1 <0>        -0.5282
     23 N2          1.5955    1.1104    0.4490 N.am      1 <0>        -0.7322
     24 C15         2.8307    0.3550    0.6723 C.3       1 <0>         0.1322
     25 C16         4.0251    1.3108    0.6446 C.3       1 <0>        -0.1555
     26 C17         5.2957    0.5338    0.8743 C.2       1 <0>         0.5206
     27 O5          5.2505   -0.6663    1.0434 O.2       1 <0>        -0.5346
     28 N3          6.4824    1.1726    0.8917 N.am      1 <0>        -0.8565
     29 C18        -7.3247   -0.9902    2.2103 C.3       1 <0>        -0.1530
     30 C19        -8.2265    0.2168    2.2391 C.2       1 <0>         0.4622
     31 O6         -8.0998    1.0450    3.1097 O.co2     1 <0>        -0.6387
     32 H4         -7.6853   -2.8376    4.7666 H         1 <0>         0.0612
     33 H5         -6.9262   -2.2787    6.2918 H         1 <0>         0.0557
     34 H6         -5.4934   -3.8322    4.6196 H         1 <0>         0.0542
     35 H7         -4.7054   -2.4068    5.3633 H         1 <0>         0.0557
     36 H8         -5.6737   -2.8000    2.5346 H         1 <0>         0.0633
     37 H9         -4.3160   -1.8086    3.1374 H         1 <0>         0.0553
     38 H10        -6.3622   -0.1311    5.3505 H         1 <0>         0.0543
     39 H11        -7.9575   -0.4469    4.5986 H         1 <0>         0.0866
     40 H12        -4.6865    0.5074    3.8581 H         1 <0>         0.0783
     41 H13        -6.0707    1.2749    3.0438 H         1 <0>         0.1240
     42 H14        -3.9490    2.1519    1.7634 H         1 <0>         0.4009
     43 H15        -1.9354   -0.5028    0.3275 H         1 <0>         0.1395
     44 H16        -0.0160    3.1264    0.7135 H         1 <0>         0.0792
     45 H17        -0.3735    2.9138   -1.0147 H         1 <0>         0.0912
     46 H18        -4.3274    4.2031   -0.9698 H         1 <0>         0.3865
     47 H19        -1.3903    5.2692    0.2496 H         1 <0>         0.3828
     48 H20         1.6317    2.0702    0.3137 H         1 <0>         0.3986
     49 H21         2.7837   -0.1398    1.6423 H         1 <0>         0.0783
     50 H22         2.9459   -0.3932   -0.1120 H         1 <0>         0.0783
     51 H23         4.0721    1.8056   -0.3255 H         1 <0>         0.1026
     52 H24         3.9099    2.0590    1.4289 H         1 <0>         0.1024
     53 H25         6.5186    2.1324    0.7564 H         1 <0>         0.4021
     54 H26         7.3003    0.6724    1.0396 H         1 <0>         0.4037
     55 H27        -6.8421   -1.0601    1.2355 H         1 <0>         0.0796
     56 H28        -7.9149   -1.8890    2.3889 H         1 <0>         0.0587
     57 O7         -9.1704    0.3719    1.2975 O.co2     1 <0>        -0.7787
@<TRIPOS>BOND
     1    1    5 1
     2    1    2 1
     3    1   32 1
     4    1   33 1
     5    2    3 1
     6    2   34 1
     7    2   35 1
     8    3    4 1
     9    3   36 1
    10    3   37 1
    11    4    5 1
    12    4    6 1
    13    4   29 1
    14    5   38 1
    15    5   39 1
    16    6    7 1
    17    6   40 1
    18    6   41 1
    19    7    8 2
    20    7    9 am
    21    9   10 1
    22    9   42 1
    23   10   11 1
    24   10   17 1
    25   10   12 1
    26   12   13 2
    27   12   43 1
    28   13   14 1
    29   13   21 1
    30   14   15 1
    31   14   44 1
    32   14   45 1
    33   15   16 1
    34   15   17 1
    35   15   20 1
    36   17   18 1
    37   17   19 1
    38   19   46 1
    39   20   47 1
    40   21   22 2
    41   21   23 am
    42   23   24 1
    43   23   48 1
    44   24   25 1
    45   24   49 1
    46   24   50 1
    47   25   26 1
    48   25   51 1
    49   25   52 1
    50   26   27 2
    51   26   28 am
    52   28   53 1
    53   28   54 1
    54   29   30 1
    55   29   55 1
    56   29   56 1
    57   30   31 2
    58   30   57 1
@<TRIPOS>MOLECULE
ZINC13054177
   42    43     0     0     0
SMALL
USER_CHARGES
4-[2-[(3,5-dicarbamoylphenyl)amino]-2-oxo-ethoxy]-3-nitro-benzoic acid
@<TRIPOS>ATOM
      1 C1        -10.6410    6.0678    0.6339 C.ar      1 <0>         0.0132
      2 C2         -9.5370    5.2538    0.5132 C.ar      1 <0>        -0.2297
      3 C3         -8.2620    5.8070    0.4942 C.ar      1 <0>         0.1837
      4 C4         -8.0953    7.1830    0.6025 C.ar      1 <0>        -0.0853
      5 C5         -9.1939    8.0044    0.7178 C.ar      1 <0>         0.0109
      6 C6        -10.4782    7.4522    0.7373 C.ar      1 <0>        -0.1427
      7 C7        -11.6577    8.3278    0.8662 C.2       1 <0>         0.4944
      8 O1        -11.5142    9.5310    0.9560 O.co2     1 <0>        -0.6182
      9 N1         -6.7348    7.7660    0.5883 N.pl3     1 <0>         0.0372
     10 O2         -6.5877    8.9714    0.6831 O.2       1 <0>        -0.1860
     11 O3         -5.7624    7.0404    0.4817 O.3       1 <0>        -0.1376
     12 O4         -7.1766    5.0012    0.3751 O.3       1 <0>        -0.2601
     13 C8         -7.4193    3.5966    0.2740 C.3       1 <0>         0.0365
     14 C9         -6.1062    2.8676    0.1498 C.2       1 <0>         0.5137
     15 O5         -5.0650    3.4897    0.1480 O.2       1 <0>        -0.4690
     16 N2         -6.0889    1.5244    0.0407 N.am      1 <0>        -0.6731
     17 C10        -4.8688    0.8382    0.0364 C.ar      1 <0>         0.1444
     18 C11        -4.7282   -0.3189   -0.7156 C.ar      1 <0>        -0.0592
     19 C12        -3.5130   -1.0055   -0.7220 C.ar      1 <0>        -0.1257
     20 C13        -2.4405   -0.5275    0.0280 C.ar      1 <0>        -0.0700
     21 C14        -2.5851    0.6350    0.7823 C.ar      1 <0>        -0.1218
     22 C15        -3.8047    1.3139    0.7884 C.ar      1 <0>        -0.0354
     23 C16        -1.4496    1.1457    1.5802 C.2       1 <0>         0.5628
     24 O6         -1.5766    2.1600    2.2379 O.2       1 <0>        -0.5208
     25 N3         -0.2741    0.4866    1.5781 N.am      1 <0>        -0.8510
     26 C17        -3.3641   -2.2392   -1.5236 C.2       1 <0>         0.5679
     27 O7         -4.3002   -2.6557   -2.1777 O.2       1 <0>        -0.5334
     28 N4         -2.1905   -2.9019   -1.5290 N.am      1 <0>        -0.8495
     29 H1        -11.6313    5.6372    0.6489 H         1 <0>         0.1555
     30 H2         -9.6619    4.1840    0.4336 H         1 <0>         0.1471
     31 H3         -9.0637    9.0736    0.7974 H         1 <0>         0.1658
     32 H4         -8.0309    3.3960   -0.6056 H         1 <0>         0.1041
     33 H5         -7.9426    3.2532    1.1664 H         1 <0>         0.1053
     34 H6         -6.9219    1.0331   -0.0349 H         1 <0>         0.4175
     35 H7         -5.5600   -0.6891   -1.2964 H         1 <0>         0.1488
     36 H8         -1.4992   -1.0571    0.0250 H         1 <0>         0.1308
     37 H9         -3.9187    2.2128    1.3761 H         1 <0>         0.1588
     38 H10        -0.1728   -0.3228    1.0532 H         1 <0>         0.3980
     39 H11         0.4720    0.8238    2.0983 H         1 <0>         0.4083
     40 H12        -1.4435   -2.5696   -1.0070 H         1 <0>         0.4001
     41 H13        -2.0929   -3.7112   -2.0548 H         1 <0>         0.4083
     42 O8        -12.8946    7.7936    0.8844 O.co2     1 <0>        -0.7446
@<TRIPOS>BOND
     1    1    6 ar
     2    1    2 ar
     3    1   29 1
     4    2    3 ar
     5    2   30 1
     6    3    4 ar
     7    3   12 1
     8    4    5 ar
     9    4    9 1
    10    5    6 ar
    11    5   31 1
    12    6    7 1
    13    7    8 2
    14    7   42 1
    15    9   10 2
    16    9   11 1
    17   12   13 1
    18   13   14 1
    19   13   32 1
    20   13   33 1
    21   14   15 2
    22   14   16 am
    23   16   17 1
    24   16   34 1
    25   17   22 ar
    26   17   18 ar
    27   18   19 ar
    28   18   35 1
    29   19   20 ar
    30   19   26 1
    31   20   21 ar
    32   20   36 1
    33   21   22 ar
    34   21   23 1
    35   22   37 1
    36   23   24 2
    37   23   25 am
    38   25   38 1
    39   25   39 1
    40   26   27 2
    41   26   28 am
    42   28   40 1
    43   28   41 1
@<TRIPOS>MOLECULE
ZINC21075455
   47    50     0     0     0
SMALL
USER_CHARGES
N-(1,3-dioxoisoindolin-5-yl)-2-[[5-[(N'E)-N'-[(2-hydroxy-5-nitro-phenyl)methylene]hydrazino]-4H-1,2,4-triazol-3-yl]sulfanyl]acetamide
@<TRIPOS>ATOM
      1 C1          2.9049    4.0869    0.6185 C.ar      1 <0>        -0.1054
      2 C2          1.5411    4.3155    0.6488 C.ar      1 <0>        -0.0184
      3 C3          0.6761    3.4098    0.0515 C.ar      1 <0>        -0.1655
      4 C4          1.1901    2.2593   -0.5840 C.ar      1 <0>        -0.1246
      5 C5          2.5547    2.0376   -0.6097 C.ar      1 <0>        -0.0710
      6 C6          3.4144    2.9552   -0.0058 C.ar      1 <0>         0.1824
      7 N1          4.7913    2.7358   -0.0291 N.am      1 <0>        -0.6822
      8 C7          5.6382    3.7790   -0.1340 C.2       1 <0>         0.5416
      9 O1          5.2078    4.9128   -0.1247 O.2       1 <0>        -0.5005
     10 C8          7.1200    3.5366   -0.2627 C.3       1 <0>        -0.1657
     11 S1          7.9827    5.1232   -0.3833 S.3       1 <0>         0.1323
     12 C9          9.5986    4.5737   -0.5162 C.2       1 <0>         0.1251
     13 N2         10.7119    5.3564   -0.6384 N.2       1 <0>        -0.5233
     14 C10        11.7779    4.4938   -0.7119 C.2       1 <0>         0.4796
     15 N3         11.2870    3.2433   -0.6336 N.pl3     1 <0>        -0.4057
     16 N4         10.0075    3.2895   -0.5136 N.2       1 <0>        -0.3328
     17 N5         13.0651    4.8335   -0.8387 N.pl3     1 <0>        -0.4957
     18 N6         13.9713    3.9172   -0.8962 N.2       1 <0>        -0.2322
     19 C11        15.2397    4.2520   -1.0211 C.2       1 <0>         0.1073
     20 C12        16.2350    3.2457   -1.0843 C.ar      1 <0>        -0.1962
     21 C13        17.5898    3.5961   -1.2175 C.ar      1 <0>         0.0255
     22 C14        18.5428    2.6217   -1.2777 C.ar      1 <0>        -0.1192
     23 C15        18.1868    1.2806   -1.2080 C.ar      1 <0>        -0.0139
     24 C16        16.8623    0.9112   -1.0766 C.ar      1 <0>        -0.2321
     25 C17        15.8749    1.8821   -1.0081 C.ar      1 <0>         0.3291
     26 O2         14.5745    1.5256   -0.8740 O.3       1 <0>        -0.6259
     27 N7         19.9678    2.9964   -1.4180 N.pl3     1 <0>         0.0293
     28 O3         20.3114    4.2661   -1.4842 O.2       1 <0>        -0.2546
     29 O4         20.8922    2.0602   -1.4767 O.3       1 <0>        -0.2528
     30 C18         0.0157    1.5267   -1.1041 C.2       1 <0>         0.5765
     31 O5          0.0477    0.4788   -1.7171 O.2       1 <0>        -0.4666
     32 N8         -1.0937    2.2191   -0.7890 N.am      1 <0>        -0.6946
     33 C19        -0.7895    3.3362   -0.1043 C.2       1 <0>         0.5874
     34 O6         -1.5880    4.1516    0.3120 O.2       1 <0>        -0.4678
     35 H1          3.5778    4.7923    1.0832 H         1 <0>         0.1597
     36 H2          1.1505    5.1966    1.1361 H         1 <0>         0.1467
     37 H3          2.9529    1.1588   -1.0951 H         1 <0>         0.1470
     38 H4          5.1862    1.7113    0.0381 H         1 <0>         0.4474
     39 H5          7.4802    2.9896    0.6211 H         1 <0>         0.1295
     40 H6          7.3172    2.9424   -1.1671 H         1 <0>         0.1293
     41 H7         13.3512    5.8942   -0.8940 H         1 <0>         0.4111
     42 H8         15.5257    5.3127   -1.0763 H         1 <0>         0.1096
     43 H9         17.8761    4.6360   -1.2725 H         1 <0>         0.1343
     44 H10        18.9523    0.5203   -1.2567 H         1 <0>         0.1302
     45 H11        16.5962   -0.1341   -1.0226 H         1 <0>         0.1268
     46 H12        -2.0816    1.8434   -1.0938 H         1 <0>         0.4592
     47 H13        11.9688    2.3811   -0.6762 H         1 <0>         0.5000
@<TRIPOS>BOND
     1    1    6 ar
     2    1    2 ar
     3    1   35 1
     4    2    3 ar
     5    2   36 1
     6    3   33 1
     7    3    4 ar
     8    4    5 ar
     9    4   30 1
    10    5    6 ar
    11    5   37 1
    12    6    7 1
    13    7    8 am
    14    7   38 1
    15    8    9 2
    16    8   10 1
    17   10   11 1
    18   10   39 1
    19   10   40 1
    20   11   12 1
    21   12   16 2
    22   12   13 1
    23   13   14 2
    24   14   15 1
    25   14   17 1
    26   15   16 1
    27   15   47 1
    28   17   18 1
    29   17   41 1
    30   18   19 2
    31   19   20 1
    32   19   42 1
    33   20   25 ar
    34   20   21 ar
    35   21   22 ar
    36   21   43 1
    37   22   23 ar
    38   22   27 1
    39   23   24 ar
    40   23   44 1
    41   24   25 ar
    42   24   45 1
    43   25   26 1
    44   27   28 2
    45   27   29 1
    46   30   31 2
    47   30   32 am
    48   32   33 am
    49   32   46 1
    50   33   34 2
@<TRIPOS>MOLECULE
ZINC35484979
   60    62     0     0     0
SMALL
USER_CHARGES

@<TRIPOS>ATOM
      1 C1         -0.0187    1.5258    0.0104 C.3       1 <0>        -0.1797
      2 C2          0.0021   -0.0041    0.0020 C.3       1 <0>         0.1096
      3 H1          0.5123   -0.3556   -0.8948 H         1 <0>         0.1103
      4 C3          0.7421   -0.5109    1.2415 C.3       1 <0>         0.0440
      5 H2          1.7647   -0.1336    1.2338 H         1 <0>         0.0878
      6 C4          0.7625   -2.0177    1.2333 C.2       1 <0>         0.5008
      7 O1          1.4417   -2.6137    0.4147 O.co2     1 <0>        -0.6992
      8 O2          0.0999   -2.6409    2.0451 O.co2     1 <0>        -0.6823
      9 N1          0.0564   -0.0384    2.4469 N.am      1 <0>        -0.6951
     10 C5          0.7380    0.0932    3.6021 C.2       1 <0>         0.5156
     11 O3          1.9190   -0.1795    3.6438 O.2       1 <0>        -0.5374
     12 C6          0.0326    0.5792    4.8420 C.3       1 <0>        -0.1324
     13 C7          1.0260    0.6377    6.0041 C.3       1 <0>        -0.0425
     14 H3          1.8805    1.2524    5.7210 H         1 <0>         0.0951
     15 C8          0.3424    1.2480    7.2293 C.3       1 <0>         0.1273
     16 N2          1.3239    1.4143    8.3040 N.am      1 <0>        -0.7228
     17 C9          0.9457    1.9378    9.4870 C.2       1 <0>         0.5154
     18 O4         -0.2072    2.2711    9.6618 O.2       1 <0>        -0.5219
     19 C10         1.9555    2.1089   10.5925 C.3       1 <0>         0.0715
     20 H4          2.9010    2.4543   10.1746 H         1 <0>         0.0652
     21 C11         2.1667    0.7734   11.3064 C.3       1 <0>        -0.0661
     22 C12         2.9828    0.9818   12.5563 C.ar      1 <0>        -0.0648
     23 C13         3.5819   -0.1209   13.1465 C.ar      1 <0>        -0.1171
     24 C14         4.3340    0.0252   14.2947 C.ar      1 <0>        -0.1188
     25 C15         4.4909    1.2776   14.8593 C.ar      1 <0>        -0.1224
     26 C16         3.8968    2.3759   14.2715 C.ar      1 <0>        -0.1159
     27 C17         3.1422    2.2311   13.1164 C.ar      1 <0>        -0.0806
     28 C18         2.5223    3.4607   12.5060 C.3       1 <0>         0.0983
     29 N3          1.4581    3.0914   11.5686 N.3       1 <0>        -0.6620
     30 C19         1.4966   -0.7555    6.3334 C.ar      1 <0>        -0.0638
     31 C20         0.5839   -1.7206    6.7162 C.ar      1 <0>        -0.0982
     32 C21         1.0149   -2.9987    7.0183 C.ar      1 <0>        -0.1073
     33 C22         2.3601   -3.3120    6.9375 C.ar      1 <0>        -0.0313
     34 C23         3.2730   -2.3456    6.5543 C.ar      1 <0>        -0.1112
     35 C24         2.8401   -1.0695    6.2470 C.ar      1 <0>        -0.0745
     36 Cl1         2.9022   -4.9168    7.3174 Cl        1 <0>        -0.0810
     37 O5         -1.3386   -0.4987    0.0122 O.3       1 <0>        -0.5505
     38 H5          1.0039    1.9031    0.0027 H         1 <0>         0.0632
     39 H6         -0.5459    1.8868   -0.8726 H         1 <0>         0.0591
     40 H7         -0.5289    1.8773    0.9072 H         1 <0>         0.0540
     41 H8         -0.8882    0.1796    2.4135 H         1 <0>         0.3848
     42 H9         -0.3749    1.5740    4.6618 H         1 <0>         0.0950
     43 H10        -0.7779   -0.1058    5.0910 H         1 <0>         0.0974
     44 H11        -0.0759    2.2194    6.9657 H         1 <0>         0.0745
     45 H12        -0.4567    0.5876    7.5660 H         1 <0>         0.0744
     46 H13         2.2460    1.1477    8.1642 H         1 <0>         0.4020
     47 H14         1.1990    0.3483   11.5727 H         1 <0>         0.0910
     48 H15         2.6914    0.0869   10.6419 H         1 <0>         0.0849
     49 H16         3.4590   -1.0992   12.7057 H         1 <0>         0.1236
     50 H17         4.7984   -0.8364   14.7510 H         1 <0>         0.1223
     51 H18         5.0774    1.3961   15.7583 H         1 <0>         0.1217
     52 H19         4.0198    3.3536   14.7134 H         1 <0>         0.1215
     53 H20         2.1061    4.0847   13.2969 H         1 <0>         0.0932
     54 H21         3.2885    4.0235   11.9728 H         1 <0>         0.0458
     55 H22         1.0841    3.9053   11.1040 H         1 <0>         0.3554
     56 H23        -0.4661   -1.4759    6.7796 H         1 <0>         0.1262
     57 H24         0.3018   -3.7525    7.3178 H         1 <0>         0.1289
     58 H25         4.3232   -2.5895    6.4914 H         1 <0>         0.1284
     59 H26         3.5521   -0.3164    5.9432 H         1 <0>         0.1284
     60 H27        -1.8531   -0.2245    0.7836 H         1 <0>         0.3618
@<TRIPOS>BOND
     1    1    2 1
     2    1   38 1
     3    1   39 1
     4    1   40 1
     5    2    3 1
     6    2    4 1
     7    2   37 1
     8    4    5 1
     9    4    6 1
    10    4    9 1
    11    6    7 2
    12    6    8 1
    13    9   10 am
    14    9   41 1
    15   10   11 2
    16   10   12 1
    17   12   13 1
    18   12   42 1
    19   12   43 1
    20   13   14 1
    21   13   15 1
    22   13   30 1
    23   15   16 1
    24   15   44 1
    25   15   45 1
    26   16   17 am
    27   16   46 1
    28   17   18 2
    29   17   19 1
    30   19   20 1
    31   19   29 1
    32   19   21 1
    33   21   22 1
    34   21   47 1
    35   21   48 1
    36   22   27 ar
    37   22   23 ar
    38   23   24 ar
    39   23   49 1
    40   24   25 ar
    41   24   50 1
    42   25   26 ar
    43   25   51 1
    44   26   27 ar
    45   26   52 1
    46   27   28 1
    47   28   29 1
    48   28   53 1
    49   28   54 1
    50   29   55 1
    51   30   35 ar
    52   30   31 ar
    53   31   32 ar
    54   31   56 1
    55   32   33 ar
    56   32   57 1
    57   33   34 ar
    58   33   36 1
    59   34   35 ar
    60   34   58 1
    61   35   59 1
    62   37   60 1
@<TRIPOS>MOLECULE
ZINC43743705
   75    78     0     0     0
SMALL
USER_CHARGES

@<TRIPOS>ATOM
      1 C1         -0.0184    1.5028    0.0103 C.3       1 <0>        -0.2131
      2 C2          0.0021   -0.0041    0.0020 C.2       1 <0>         0.3335
      3 O1          1.0559   -0.5936   -0.0112 O.2       1 <0>        -0.4312
      4 C3         -1.2926   -0.7753    0.0102 C.3       1 <0>         0.0967
      5 C4         -1.7147   -1.1308   -1.4372 C.3       1 <0>        -0.1396
      6 C5         -1.6709   -2.6801   -1.5381 C.3       1 <0>        -0.1136
      7 C6         -0.6827   -3.0680   -0.4328 C.3       1 <0>        -0.0840
      8 H1          0.3395   -2.8562   -0.7465 H         1 <0>         0.0847
      9 C7         -1.1057   -2.1141    0.7167 C.3       1 <0>        -0.0376
     10 C8         -0.0192   -2.1752    1.7731 C.3       1 <0>        -0.1192
     11 C9         -0.0091   -3.6063    2.3339 C.3       1 <0>        -0.1202
     12 C10         0.2175   -4.6395    1.2346 C.3       1 <0>        -0.0651
     13 H2          1.2186   -4.5121    0.8227 H         1 <0>         0.0707
     14 C11        -0.7918   -4.4913    0.0819 C.3       1 <0>        -0.0754
     15 H3         -1.7980   -4.6673    0.4624 H         1 <0>         0.0857
     16 C12        -0.4724   -5.4802   -1.0394 C.3       1 <0>        -0.1096
     17 C13        -0.6081   -6.9180   -0.5248 C.3       1 <0>        -0.0863
     18 C14         0.2890   -7.0563    0.6939 C.2       1 <0>        -0.0630
     19 C15         1.1804   -8.0370    0.7233 C.2       1 <0>        -0.1138
     20 C16         2.0828   -8.1490    1.8865 C.2       1 <0>         0.1644
     21 N1          2.6201   -9.2757    2.2330 N.2       1 <0>        -0.3391
     22 O2          3.4796   -9.3343    3.3567 O.3       1 <0>        -0.2064
     23 C17         4.0001  -10.6382    3.6229 C.3       1 <0>         0.0623
     24 C18         4.8968  -10.5837    4.8329 C.2       1 <0>         0.5206
     25 O3          5.0728   -9.5318    5.4104 O.2       1 <0>        -0.5302
     26 N2          5.5032  -11.7039    5.2733 N.am      1 <0>        -0.6832
     27 C19         6.3748  -11.6510    6.4496 C.3       1 <0>         0.0968
     28 H4          5.9806  -10.9259    7.1616 H         1 <0>         0.0906
     29 C20         6.4303  -13.0319    7.1059 C.3       1 <0>        -0.1355
     30 C21         5.0662  -13.3911    7.6363 C.2       1 <0>         0.5128
     31 O4          4.1409  -12.6186    7.5027 O.2       1 <0>        -0.5319
     32 N3          4.8746  -14.5708    8.2593 N.am      1 <0>        -0.8632
     33 C22         7.7619  -11.2387    6.0287 C.2       1 <0>         0.4920
     34 O5          8.4739  -10.6185    6.8000 O.co2     1 <0>        -0.6900
     35 O6          8.1722  -11.5255    4.9170 O.co2     1 <0>        -0.6874
     36 C23         2.3433   -6.8646    2.6514 C.3       1 <0>        -0.1139
     37 C24         0.9867   -6.2564    3.0058 C.3       1 <0>        -0.1087
     38 C25         0.0883   -6.0465    1.8188 C.3       1 <0>        -0.0160
     39 C26        -1.3524   -6.1763    2.3170 C.3       1 <0>        -0.1521
     40 C27        -2.4374   -2.5770    1.3112 C.3       1 <0>        -0.1368
     41 O7         -2.3170   -0.0146    0.6538 O.3       1 <0>        -0.5371
     42 H5          1.0042    1.8801    0.0026 H         1 <0>         0.0855
     43 H6         -0.5455    1.8639   -0.8728 H         1 <0>         0.0910
     44 H7         -0.5286    1.8543    0.9071 H         1 <0>         0.0974
     45 H8         -2.7254   -0.7717   -1.6311 H         1 <0>         0.0830
     46 H9         -1.0173   -0.6896   -2.1493 H         1 <0>         0.0684
     47 H10        -2.6546   -3.1072   -1.3433 H         1 <0>         0.0740
     48 H11        -1.2999   -2.9926   -2.5142 H         1 <0>         0.0700
     49 H12         0.9475   -1.9455    1.3248 H         1 <0>         0.0905
     50 H13        -0.2372   -1.4654    2.5711 H         1 <0>         0.0587
     51 H14         0.7871   -3.6931    3.0732 H         1 <0>         0.0688
     52 H15        -0.9653   -3.8056    2.8177 H         1 <0>         0.0719
     53 H16        -1.1649   -5.3251   -1.8667 H         1 <0>         0.0666
     54 H17         0.5473   -5.3153   -1.3876 H         1 <0>         0.0652
     55 H18        -1.6434   -7.1149   -0.2462 H         1 <0>         0.0783
     56 H19        -0.2926   -7.6188   -1.2977 H         1 <0>         0.0743
     57 H20         1.2453   -8.7435   -0.0909 H         1 <0>         0.1315
     58 H21         3.1764  -11.3266    3.8118 H         1 <0>         0.0802
     59 H22         4.5723  -10.9838    2.7620 H         1 <0>         0.0837
     60 H23         5.3624  -12.5452    4.8114 H         1 <0>         0.3897
     61 H24         6.7399  -13.7725    6.3684 H         1 <0>         0.0975
     62 H25         7.1467  -13.0154    7.9272 H         1 <0>         0.1085
     63 H26         5.6147  -15.1886    8.3663 H         1 <0>         0.3993
     64 H27         3.9967  -14.8020    8.6008 H         1 <0>         0.3949
     65 H28         2.9002   -7.0830    3.5626 H         1 <0>         0.0927
     66 H29         2.9084   -6.1712    2.0286 H         1 <0>         0.0855
     67 H30         0.4763   -6.9167    3.7069 H         1 <0>         0.0666
     68 H31         1.1476   -5.2913    3.4863 H         1 <0>         0.0801
     69 H32        -2.0395   -6.0353    1.4826 H         1 <0>         0.0631
     70 H33        -1.5006   -7.1672    2.7462 H         1 <0>         0.0549
     71 H34        -1.5437   -5.4188    3.0771 H         1 <0>         0.0641
     72 H35        -3.1787   -2.6650    0.5170 H         1 <0>         0.0543
     73 H36        -2.3034   -3.5459    1.7921 H         1 <0>         0.0664
     74 H37        -2.7788   -1.8497    2.0479 H         1 <0>         0.0617
     75 H38        -2.4941    0.8393    0.2361 H         1 <0>         0.3740
@<TRIPOS>BOND
     1    1    2 1
     2    1   42 1
     3    1   43 1
     4    1   44 1
     5    2    3 2
     6    2    4 1
     7    4    9 1
     8    4    5 1
     9    4   41 1
    10    5    6 1
    11    5   45 1
    12    5   46 1
    13    6    7 1
    14    6   47 1
    15    6   48 1
    16    7    8 1
    17    7   14 1
    18    7    9 1
    19    9   10 1
    20    9   40 1
    21   10   11 1
    22   10   49 1
    23   10   50 1
    24   11   12 1
    25   11   51 1
    26   11   52 1
    27   12   13 1
    28   12   38 1
    29   12   14 1
    30   14   15 1
    31   14   16 1
    32   16   17 1
    33   16   53 1
    34   16   54 1
    35   17   18 1
    36   17   55 1
    37   17   56 1
    38   18   38 1
    39   18   19 2
    40   19   20 1
    41   19   57 1
    42   20   21 2
    43   20   36 1
    44   21   22 1
    45   22   23 1
    46   23   24 1
    47   23   58 1
    48   23   59 1
    49   24   25 2
    50   24   26 am
    51   26   27 1
    52   26   60 1
    53   27   28 1
    54   27   29 1
    55   27   33 1
    56   29   30 1
    57   29   61 1
    58   29   62 1
    59   30   31 2
    60   30   32 am
    61   32   63 1
    62   32   64 1
    63   33   34 2
    64   33   35 1
    65   36   37 1
    66   36   65 1
    67   36   66 1
    68   37   38 1
    69   37   67 1
    70   37   68 1
    71   38   39 1
    72   39   69 1
    73   39   70 1
    74   39   71 1
    75   40   72 1
    76   40   73 1
    77   40   74 1
    78   41   75 1
@<TRIPOS>MOLECULE
ZINC66729969
   47    47     0     0     0
SMALL
USER_CHARGES

@<TRIPOS>ATOM
      1 C1         -0.0187    1.5258    0.0104 C.3       1 <0>        -0.1330
      2 C2          0.0021   -0.0041    0.0020 C.3       1 <0>        -0.0975
      3 C3          0.7421   -0.5109    1.2415 C.3       1 <0>        -0.1469
      4 C4         -1.4333   -0.5336    0.0129 C.3       1 <0>         0.2000
      5 H1         -1.9605   -0.1726   -0.8702 H         1 <0>         0.1068
      6 C5         -1.4129   -2.0405    0.0046 C.2       1 <0>         0.4889
      7 O1         -1.4944   -2.7227    1.1658 O.3       1 <0>        -0.7113
      8 N1         -1.3174   -2.6783   -1.1131 N.2       1 <0>        -1.0560
      9 S1         -1.2949   -4.3341   -1.1222 S.o2      1 <0>         2.6506
     10 O2         -0.0907   -4.7275   -0.4785 O.2       1 <0>        -1.0010
     11 O3         -2.5736   -4.7601   -0.6720 O.2       1 <0>        -1.0013
     12 C6         -1.1572   -4.8440   -2.8032 C.ar      1 <0>        -0.6208
     13 C7         -2.2965   -5.0543   -3.5572 C.ar      1 <0>        -0.0238
     14 C8         -2.1885   -5.4543   -4.8760 C.ar      1 <0>        -0.1242
     15 C9         -0.9411   -5.6437   -5.4408 C.ar      1 <0>        -0.0770
     16 C10         0.1983   -5.4326   -4.6870 C.ar      1 <0>        -0.1243
     17 C11         0.0903   -5.0284   -3.3695 C.ar      1 <0>        -0.0236
     18 C12        -0.8233   -6.0808   -6.8783 C.3       1 <0>         0.1786
     19 N2         -0.7657   -4.9006   -7.7444 N.am      1 <0>        -0.7399
     20 C13        -0.6587   -5.0492   -9.0796 C.2       1 <0>         0.7057
     21 O4         -0.6099   -6.1628   -9.5654 O.2       1 <0>        -0.5979
     22 N3         -0.6058   -3.9635   -9.8764 N.am      1 <0>        -0.8682
     23 N4         -2.1190   -0.0612    1.2182 N.am      1 <0>        -0.6834
     24 C14        -2.7041    1.1529    1.2285 C.2       1 <0>         0.6448
     25 O5         -2.6628    1.8557    0.2381 O.2       1 <0>        -0.5765
     26 O6         -3.3343    1.5871    2.3362 O.3       1 <0>        -0.3707
     27 C15        -3.9321    2.8837    2.2764 C.3       1 <0>         0.0570
     28 H2          1.0039    1.9031    0.0027 H         1 <0>         0.0442
     29 H3         -0.5459    1.8868   -0.8726 H         1 <0>         0.0623
     30 H4         -0.5289    1.8773    0.9072 H         1 <0>         0.0481
     31 H5          0.5123   -0.3556   -0.8948 H         1 <0>         0.0876
     32 H6          0.2319   -0.1594    2.1383 H         1 <0>         0.0515
     33 H7          0.7568   -1.6008    1.2356 H         1 <0>         0.0690
     34 H8          1.7647   -0.1336    1.2338 H         1 <0>         0.0468
     35 H9         -3.2711   -4.9063   -3.1159 H         1 <0>         0.1398
     36 H10        -3.0786   -5.6192   -5.4649 H         1 <0>         0.1293
     37 H11         1.1728   -5.5809   -5.1282 H         1 <0>         0.1294
     38 H12         0.9805   -4.8599   -2.7817 H         1 <0>         0.1402
     39 H13         0.0851   -6.6696   -7.0057 H         1 <0>         0.0779
     40 H14        -1.6893   -6.6861   -7.1461 H         1 <0>         0.0779
     41 H15        -0.8046   -4.0122   -7.3568 H         1 <0>         0.4008
     42 H16        -0.6447   -3.0751   -9.4889 H         1 <0>         0.3980
     43 H17        -0.5287   -4.0705  -10.8374 H         1 <0>         0.4141
     44 H18        -2.1520   -0.6222    2.0088 H         1 <0>         0.4166
     45 H19        -3.1646    3.6283    2.0653 H         1 <0>         0.0570
     46 H20        -4.6828    2.9016    1.4864 H         1 <0>         0.0575
     47 H21        -4.4049    3.1102    3.2321 H         1 <0>         0.0969
@<TRIPOS>BOND
     1    1    2 1
     2    1   28 1
     3    1   29 1
     4    1   30 1
     5    2    3 1
     6    2    4 1
     7    2   31 1
     8    3   32 1
     9    3   33 1
    10    3   34 1
    11    4    5 1
    12    4    6 1
    13    4   23 1
    14    6    7 1
    15    6    8 2
    16    8    9 1
    17    9   10 2
    18    9   11 2
    19    9   12 1
    20   12   17 ar
    21   12   13 ar
    22   13   14 ar
    23   13   35 1
    24   14   15 ar
    25   14   36 1
    26   15   16 ar
    27   15   18 1
    28   16   17 ar
    29   16   37 1
    30   17   38 1
    31   18   19 1
    32   18   39 1
    33   18   40 1
    34   19   20 am
    35   19   41 1
    36   20   21 2
    37   20   22 am
    38   22   42 1
    39   22   43 1
    40   23   24 am
    41   23   44 1
    42   24   25 2
    43   24   26 1
    44   26   27 1
    45   27   45 1
    46   27   46 1
    47   27   47 1
@<TRIPOS>MOLECULE
ZINC16900780
   52    54     0     0     0
SMALL
USER_CHARGES
(2S)-2-amino-3-[(3R)-1-[4-[(4,6-dimethylpyrimidin-2-yl)sulfamoyl]phenyl]-2,5-dioxo-pyrrolidin-3-yl]sulfanyl-propanoic acid
@<TRIPOS>ATOM
      1 C1         -6.5968    2.7519   -4.4310 C.3       1 <0>        -0.1023
      2 C2         -7.5035    1.7443   -5.0897 C.ar      1 <0>         0.2077
      3 C3         -8.8751    1.9428   -5.1102 C.ar      1 <0>        -0.3302
      4 C4         -9.6730    0.9919   -5.7268 C.ar      1 <0>         0.2028
      5 N1         -9.1054   -0.0701   -6.2741 N.ar      1 <0>        -0.5485
      6 C5         -7.7906   -0.2299   -6.2372 C.ar      1 <0>         0.5916
      7 N2         -7.0003    0.6574   -5.6511 N.ar      1 <0>        -0.6155
      8 N3         -7.2300   -1.3532   -6.8198 N.2       1 <0>        -1.0050
      9 S1         -5.6022   -1.4054   -7.1198 S.o2      1 <0>         2.6200
     10 O1         -5.2720   -0.1918   -7.7812 O.2       1 <0>        -1.0169
     11 O2         -5.3347   -2.6800   -7.6883 O.2       1 <0>        -0.9909
     12 C6         -4.7836   -1.3678   -5.5600 C.ar      1 <0>        -0.6355
     13 C7         -4.4931   -2.5502   -4.9045 C.ar      1 <0>        -0.0171
     14 C8         -3.8519   -2.5238   -3.6814 C.ar      1 <0>        -0.1321
     15 C9         -3.4989   -1.3087   -3.1103 C.ar      1 <0>         0.1292
     16 C10        -3.7966   -0.1231   -3.7683 C.ar      1 <0>        -0.1326
     17 C11        -4.4333   -0.1559   -4.9936 C.ar      1 <0>         0.0227
     18 N4         -2.8484   -1.2787   -1.8687 N.am      1 <0>        -0.5206
     19 C12        -1.5819   -0.8696   -1.7241 C.2       1 <0>         0.5241
     20 O3         -0.8615   -0.4852   -2.6202 O.2       1 <0>        -0.4547
     21 C13        -1.1922   -0.9627   -0.2650 C.3       1 <0>        -0.1341
     22 C14        -2.4666   -1.5021    0.4158 C.3       1 <0>        -0.0945
     23 H1         -2.2566   -2.5088    0.8062 H         1 <0>         0.1527
     24 C15        -3.4424   -1.6572   -0.7302 C.2       1 <0>         0.5273
     25 O4         -4.5815   -2.0606   -0.6330 O.2       1 <0>        -0.4515
     26 S2         -3.0939   -0.3110    1.6317 S.3       1 <0>        -0.1998
     27 C16        -4.4797   -1.1767    2.4195 C.3       1 <0>        -0.1115
     28 C17        -5.1087   -0.2722    3.4813 C.3       1 <0>         0.0131
     29 H2         -4.3502    0.0863    4.1928 H         1 <0>         0.1421
     30 C18        -6.1791   -1.0337    4.2198 C.2       1 <0>         0.4605
     31 O5         -7.3417   -0.8740    3.9321 O.co2     1 <0>        -0.6067
     32 O6         -5.8410   -1.8894    5.1971 O.co2     1 <0>        -0.7006
     33 N5         -5.7035    0.9040    2.8326 N.4       1 <0>        -0.6679
     34 C19       -11.1692    1.1662   -5.7737 C.3       1 <0>        -0.1022
     35 H3         -7.1996    3.5782   -4.0264 H         1 <0>         0.0687
     36 H4         -5.8860    3.1454   -5.1725 H         1 <0>         0.0772
     37 H5         -6.0430    2.2674   -3.6133 H         1 <0>         0.0698
     38 H6         -9.3125    2.8195   -4.6559 H         1 <0>         0.1215
     39 H7         -4.7676   -3.4952   -5.3494 H         1 <0>         0.1421
     40 H8         -3.6256   -3.4476   -3.1697 H         1 <0>         0.1240
     41 H9         -3.5272    0.8239   -3.3244 H         1 <0>         0.1230
     42 H10        -4.6614    0.7659   -5.5080 H         1 <0>         0.1534
     43 H11        -0.3383   -1.6476   -0.1565 H         1 <0>         0.1408
     44 H12        -0.9113    0.0348    0.1039 H         1 <0>         0.1339
     45 H13        -5.2338   -1.4293    1.6596 H         1 <0>         0.1175
     46 H14        -4.1137   -2.0993    2.8938 H         1 <0>         0.1326
     47 H15        -6.1557    1.5543    3.5959 H         1 <0>         0.4544
     48 H16        -6.4781    0.5786    2.1225 H         1 <0>         0.4571
     49 H17       -11.6213    0.3133   -6.3011 H         1 <0>         0.0758
     50 H18       -11.4133    2.0975   -6.3057 H         1 <0>         0.0735
     51 H19       -11.5650    1.2150   -4.7485 H         1 <0>         0.0731
     52 H20        -4.9221    1.4598    2.2936 H         1 <0>         0.4384
@<TRIPOS>BOND
     1    1    2 1
     2    1   35 1
     3    1   36 1
     4    1   37 1
     5    2    7 ar
     6    2    3 ar
     7    3    4 ar
     8    3   38 1
     9    4    5 ar
    10    4   34 1
    11    5    6 ar
    12    6    7 ar
    13    6    8 1
    14    8    9 1
    15    9   10 2
    16    9   11 2
    17    9   12 1
    18   12   17 ar
    19   12   13 ar
    20   13   14 ar
    21   13   39 1
    22   14   15 ar
    23   14   40 1
    24   15   16 ar
    25   15   18 1
    26   16   17 ar
    27   16   41 1
    28   17   42 1
    29   18   24 am
    30   18   19 am
    31   19   20 2
    32   19   21 1
    33   21   22 1
    34   21   43 1
    35   21   44 1
    36   22   23 1
    37   22   24 1
    38   22   26 1
    39   24   25 2
    40   26   27 1
    41   27   28 1
    42   27   45 1
    43   27   46 1
    44   28   29 1
    45   28   30 1
    46   28   33 1
    47   30   31 2
    48   30   32 1
    49   33   47 1
    50   33   48 1
    51   33   52 1
    52   34   49 1
    53   34   50 1
    54   34   51 1
@<TRIPOS>MOLECULE
ZINC35644841
   51    54     0     0     0
SMALL
USER_CHARGES

@<TRIPOS>ATOM
      1 C1         -0.0108    1.3859    0.1045 C.ar      1 <0>        -0.0935
      2 C2          1.0572    1.9318   -0.5855 C.ar      1 <0>        -0.1314
      3 C3          2.2636    1.2648   -0.6354 C.ar      1 <0>        -0.0662
      4 C4          2.4057    0.0363    0.0124 C.ar      1 <0>        -0.1442
      5 C5          1.3242   -0.5089    0.7068 C.ar      1 <0>        -0.0802
      6 C6          0.1233    0.1686    0.7487 C.ar      1 <0>        -0.1292
      7 C7          3.6960   -0.6846   -0.0373 C.2       1 <0>         0.4648
      8 O1          4.7355   -0.0640   -0.1633 O.2       1 <0>        -0.4700
      9 C8          3.7231   -2.1454    0.0652 C.2       1 <0>        -0.0588
     10 C9          2.6257   -2.9819    0.0788 C.2       1 <0>        -0.1217
     11 C10         3.1064   -4.2872    0.1904 C.2       1 <0>        -0.1556
     12 C11         4.4639   -4.2305    0.2434 C.2       1 <0>         0.0497
     13 N1          4.8529   -2.9364    0.1599 N.pl3     1 <0>        -0.4301
     14 C12         6.3206   -2.8248    0.1992 C.3       1 <0>         0.1043
     15 C13         6.8243   -4.1741    0.7535 C.3       1 <0>        -0.1160
     16 C14         5.6791   -5.1294    0.3606 C.3       1 <0>        -0.0245
     17 H1          5.9002   -5.5988   -0.5981 H         1 <0>         0.1331
     18 C15         5.4607   -6.1754    1.4232 C.2       1 <0>         0.4678
     19 O2          4.4212   -6.2036    2.0385 O.2       1 <0>        -0.4734
     20 O3          6.4210   -7.0756    1.6863 O.3       1 <0>        -0.3428
     21 C16         6.1461   -8.0381    2.7061 C.3       1 <0>         0.2205
     22 H2          5.7873   -7.5281    3.6002 H         1 <0>         0.1034
     23 C17         7.4258   -8.8103    3.0377 C.3       1 <0>         0.0628
     24 H3          7.2265   -9.5166    3.8436 H         1 <0>         0.1002
     25 C18         7.8903   -9.5721    1.7926 C.3       1 <0>         0.1290
     26 H4          8.7694  -10.1683    2.0368 H         1 <0>         0.0699
     27 C19         6.7613  -10.4933    1.3204 C.3       1 <0>         0.1012
     28 H5          7.0629  -10.9983    0.4028 H         1 <0>         0.0815
     29 C20         5.5072   -9.6562    1.0552 C.3       1 <0>        -0.0065
     30 H6          5.7086   -8.9432    0.2557 H         1 <0>         0.0713
     31 O4          5.1472   -8.9497    2.2443 O.3       1 <0>        -0.3268
     32 C21         4.3749  -10.5628    0.6467 C.2       1 <0>         0.5022
     33 O5          3.3915  -10.6690    1.3595 O.co2     1 <0>        -0.6631
     34 O6          4.4422  -11.1901   -0.3966 O.co2     1 <0>        -0.6866
     35 O7          6.4835  -11.4648    2.3309 O.3       1 <0>        -0.5628
     36 O8          8.2157   -8.6425    0.7572 O.3       1 <0>        -0.5401
     37 O9          8.4438   -7.8944    3.4462 O.3       1 <0>        -0.5577
     38 H7         -0.9518    1.9143    0.1442 H         1 <0>         0.1265
     39 H8          0.9458    2.8821   -1.0865 H         1 <0>         0.1282
     40 H9          3.0963    1.6919   -1.1746 H         1 <0>         0.1300
     41 H10         1.4274   -1.4590    1.2097 H         1 <0>         0.1430
     42 H11        -0.7141   -0.2521    1.2855 H         1 <0>         0.1310
     43 H12         1.5899   -2.6827    0.0155 H         1 <0>         0.1581
     44 H13         2.5060   -5.1842    0.2283 H         1 <0>         0.1487
     45 H14         6.7129   -2.6596   -0.8043 H         1 <0>         0.0952
     46 H15         6.6191   -2.0109    0.8599 H         1 <0>         0.0957
     47 H16         7.7611   -4.4654    0.2784 H         1 <0>         0.1147
     48 H17         6.9347   -4.1335    1.8372 H         1 <0>         0.0894
     49 H18         5.7771  -12.0830    2.0987 H         1 <0>         0.3952
     50 H19         8.9206   -8.0235    0.9917 H         1 <0>         0.3831
     51 H20         8.2142   -7.3743    4.2283 H         1 <0>         0.3804
@<TRIPOS>BOND
     1    1    6 ar
     2    1    2 ar
     3    1   38 1
     4    2    3 ar
     5    2   39 1
     6    3    4 ar
     7    3   40 1
     8    4    5 ar
     9    4    7 1
    10    5    6 ar
    11    5   41 1
    12    6   42 1
    13    7    8 2
    14    7    9 1
    15    9   13 1
    16    9   10 2
    17   10   11 1
    18   10   43 1
    19   11   12 2
    20   11   44 1
    21   12   16 1
    22   12   13 1
    23   13   14 1
    24   14   15 1
    25   14   45 1
    26   14   46 1
    27   15   16 1
    28   15   47 1
    29   15   48 1
    30   16   17 1
    31   16   18 1
    32   18   19 2
    33   18   20 1
    34   20   21 1
    35   21   22 1
    36   21   31 1
    37   21   23 1
    38   23   24 1
    39   23   25 1
    40   23   37 1
    41   25   26 1
    42   25   27 1
    43   25   36 1
    44   27   28 1
    45   27   29 1
    46   27   35 1
    47   29   30 1
    48   29   31 1
    49   29   32 1
    50   32   33 2
    51   32   34 1
    52   35   49 1
    53   36   50 1
    54   37   51 1
@<TRIPOS>MOLECULE
ZINC51430372
   48    49     0     0     0
SMALL
USER_CHARGES

@<TRIPOS>ATOM
      1 C1         -0.6318    1.5159   -0.8610 C.3       1 <0>        -0.1718
      2 C2         -0.6258    0.0096   -0.9072 C.2       1 <0>         0.5044
      3 O1         -0.1348   -0.5662   -1.8552 O.2       1 <0>        -0.5297
      4 N1         -1.1661   -0.6978    0.1048 N.am      1 <0>        -0.6696
      5 C3         -1.2378   -2.0943    0.0231 C.ar      1 <0>         0.0977
      6 C4         -2.3261   -2.7665    0.5639 C.ar      1 <0>        -0.1249
      7 C5         -2.3968   -4.1427    0.4834 C.ar      1 <0>        -0.1000
      8 C6         -1.3796   -4.8551   -0.1387 C.ar      1 <0>         0.1668
      9 C7         -0.2914   -4.1826   -0.6799 C.ar      1 <0>        -0.1478
     10 C8         -0.2233   -2.8061   -0.6036 C.ar      1 <0>        -0.1003
     11 N2         -1.4510   -6.2507   -0.2199 N.pl3     1 <0>        -0.6760
     12 C9         -2.6542   -6.8613   -0.3938 C.2       1 <0>         0.5476
     13 O2         -3.7841   -6.1299   -0.4091 O.3       1 <0>        -0.6188
     14 C10        -2.7171   -8.2486   -0.5566 C.2       1 <0>        -0.4505
     15 C11        -1.5150   -9.0267   -0.5402 C.1       1 <0>         0.2983
     16 N3         -0.5614   -9.6439   -0.5273 N.1       1 <0>        -0.5405
     17 C12        -3.9632   -8.8809   -0.7366 C.2       1 <0>         0.4196
     18 O3         -4.9831   -8.2207   -0.7505 O.2       1 <0>        -0.5012
     19 C13        -4.0310  -10.3761   -0.9121 C.3       1 <0>        -0.1570
     20 C14        -5.4896  -10.8034   -1.0874 C.3       1 <0>        -0.1153
     21 C15        -5.5585  -12.3215   -1.2655 C.3       1 <0>         0.1158
     22 N4         -6.9551  -12.7306   -1.4334 N.am      1 <0>        -0.7142
     23 C16        -7.2599  -14.0319   -1.6074 C.2       1 <0>         0.5987
     24 O4         -6.3749  -14.8670   -1.6251 O.2       1 <0>        -0.5233
     25 C17        -8.6580  -14.4414   -1.7755 C.2       1 <0>        -0.0753
     26 C18        -9.1038  -15.7197   -1.9536 C.2       1 <0>        -0.1240
     27 C19       -10.5009  -15.6476   -2.0684 C.2       1 <0>        -0.2266
     28 C20       -10.8423  -14.3450   -1.9567 C.2       1 <0>        -0.0077
     29 O5         -9.7297  -13.6219   -1.7753 O.3       1 <0>        -0.1628
     30 H1         -0.1551    1.9088   -1.7591 H         1 <0>         0.0930
     31 H2         -1.6600    1.8737   -0.8092 H         1 <0>         0.0891
     32 H3         -0.0844    1.8545    0.0186 H         1 <0>         0.0880
     33 H4         -1.5054   -0.2398    0.8897 H         1 <0>         0.4071
     34 H5         -3.1170   -2.2125    1.0476 H         1 <0>         0.1217
     35 H6         -3.2428   -4.6654    0.9046 H         1 <0>         0.1523
     36 H7          0.4997   -4.7365   -1.1634 H         1 <0>         0.1219
     37 H8          0.6208   -2.2829   -1.0280 H         1 <0>         0.1334
     38 H9         -0.6426   -6.7824   -0.1522 H         1 <0>         0.4005
     39 H10        -3.4593  -10.6648   -1.7941 H         1 <0>         0.0787
     40 H11        -3.6126  -10.8646   -0.0320 H         1 <0>         0.0788
     41 H12        -6.0613  -10.5148   -0.2054 H         1 <0>         0.0739
     42 H13        -5.9080  -10.3150   -1.9674 H         1 <0>         0.0739
     43 H14        -4.9868  -12.6101   -2.1475 H         1 <0>         0.0710
     44 H15        -5.1401  -12.8099   -0.3855 H         1 <0>         0.0710
     45 H16        -7.6606  -12.0650   -1.4193 H         1 <0>         0.4073
     46 H17        -8.4986  -16.6132   -1.9977 H         1 <0>         0.1599
     47 H18       -11.1759  -16.4772   -2.2182 H         1 <0>         0.1562
     48 H19       -11.8473  -13.9520   -2.0028 H         1 <0>         0.2102
@<TRIPOS>BOND
     1    1    2 1
     2    1   30 1
     3    1   31 1
     4    1   32 1
     5    2    3 2
     6    2    4 am
     7    4    5 1
     8    4   33 1
     9    5   10 ar
    10    5    6 ar
    11    6    7 ar
    12    6   34 1
    13    7    8 ar
    14    7   35 1
    15    8    9 ar
    16    8   11 1
    17    9   10 ar
    18    9   36 1
    19   10   37 1
    20   11   12 1
    21   11   38 1
    22   12   13 1
    23   12   14 2
    24   14   15 1
    25   14   17 1
    26   15   16 3
    27   17   18 2
    28   17   19 1
    29   19   20 1
    30   19   39 1
    31   19   40 1
    32   20   21 1
    33   20   41 1
    34   20   42 1
    35   21   22 1
    36   21   43 1
    37   21   44 1
    38   22   23 am
    39   22   45 1
    40   23   24 2
    41   23   25 1
    42   25   29 1
    43   25   26 2
    44   26   27 1
    45   26   46 1
    46   27   28 2
    47   27   47 1
    48   28   29 1
    49   28   48 1
@<TRIPOS>MOLECULE
ZINC33751431
   39    41     0     0     0
SMALL
USER_CHARGES

@<TRIPOS>ATOM
      1 C1         -0.0158    1.3120    0.0093 C.ar      1 <0>         0.3529
      2 N1          1.0889    2.0359    0.0026 N.ar      1 <0>        -0.5972
      3 C2          2.2874    1.4623   -0.0120 C.ar      1 <0>         0.5084
      4 C3          2.3580    0.0588   -0.0202 C.ar      1 <0>        -0.0969
      5 C4          1.1546   -0.6659   -0.0126 C.ar      1 <0>         0.3075
      6 N2          0.0021   -0.0041    0.0020 N.ar      1 <0>        -0.5521
      7 N3          1.5105   -1.9915   -0.0231 N.pl3     1 <0>        -0.4308
      8 C5          2.8729   -2.0488   -0.0365 C.2       1 <0>         0.3112
      9 N4          3.3683   -0.8441   -0.0347 N.2       1 <0>        -0.4474
     10 Br1         3.8922   -3.6415   -0.0538 Br        1 <0>         0.1324
     11 C6          0.5947   -3.1350   -0.0205 C.3       1 <0>         0.2933
     12 H1         -0.4126   -2.8141   -0.2858 H         1 <0>         0.1260
     13 C7          0.5938   -3.8201    1.3640 C.3       1 <0>         0.0358
     14 H2         -0.2601   -3.4874    1.9542 H         1 <0>         0.0846
     15 C8          0.4730   -5.3255    1.0380 C.3       1 <0>         0.0510
     16 H3         -0.4407   -5.7371    1.4669 H         1 <0>         0.0867
     17 C9          0.4152   -5.3719   -0.5051 C.3       1 <0>         0.0839
     18 H4         -0.6200   -5.3958   -0.8455 H         1 <0>         0.1001
     19 O1          1.0565   -4.1510   -0.9373 O.3       1 <0>        -0.3276
     20 C10         1.1758   -6.5913   -1.0301 C.3       1 <0>         0.1528
     21 O2          1.0129   -6.6805   -2.4470 O.3       1 <0>        -0.7655
     22 P1          1.6792   -7.8468   -3.3345 P.3       1 <0>         2.2822
     23 O3          3.2035   -7.8774   -3.0841 O.2       1 <0>        -1.1145
     24 O4          1.0651   -9.2086   -2.9404 O.3       1 <0>        -1.1304
     25 O5          1.3972   -7.5621   -4.8939 O.3       1 <0>        -1.0911
     26 P2          2.0157   -8.1357   -6.2652 P.3       1 <0>         2.2113
     27 O6          3.5659   -8.3011   -6.1099 O.2       1 <0>        -1.1919
     28 O7          1.3717   -9.5271   -6.5868 O.3       1 <0>        -1.2043
     29 O8          1.7115   -7.1369   -7.4333 O.3       1 <0>        -1.2039
     30 O9          1.6153   -6.0356    1.5206 O.3       1 <0>        -0.5166
     31 O10         1.8146   -3.5513    2.0565 O.3       1 <0>        -0.5288
     32 N5          3.4396    2.2293   -0.0193 N.pl3     1 <0>        -0.8209
     33 H5         -0.9693    1.8189    0.0257 H         1 <0>         0.2021
     34 H6          2.2345   -6.4894   -0.7918 H         1 <0>         0.0681
     35 H7          0.7831   -7.4938   -0.5617 H         1 <0>         0.0642
     36 H8          1.7317   -5.9883    2.4794 H         1 <0>         0.3657
     37 H9          1.8677   -3.9578    2.9323 H         1 <0>         0.3747
     38 H10         3.3778    3.1973   -0.0138 H         1 <0>         0.4061
     39 H11         4.3087    1.7988   -0.0299 H         1 <0>         0.4191
@<TRIPOS>BOND
     1    1    6 ar
     2    1    2 ar
     3    1   33 1
     4    2    3 ar
     5    3    4 ar
     6    3   32 1
     7    4    9 1
     8    4    5 ar
     9    5    6 ar
    10    5    7 1
    11    7    8 1
    12    7   11 1
    13    8    9 2
    14    8   10 1
    15   11   12 1
    16   11   19 1
    17   11   13 1
    18   13   14 1
    19   13   15 1
    20   13   31 1
    21   15   16 1
    22   15   17 1
    23   15   30 1
    24   17   18 1
    25   17   19 1
    26   17   20 1
    27   20   21 1
    28   20   34 1
    29   20   35 1
    30   21   22 1
    31   22   23 2
    32   22   24 1
    33   22   25 1
    34   25   26 1
    35   26   27 2
    36   26   28 1
    37   26   29 1
    38   30   36 1
    39   31   37 1
    40   32   38 1
    41   32   39 1
@<TRIPOS>MOLECULE
ZINC65749699
   59    61     0     0     0
SMALL
USER_CHARGES

@<TRIPOS>ATOM
      1 C1          0.0420    1.3366   -0.4346 C.3       1 <0>        -0.1572
      2 C2          0.0945   -0.1869   -0.3042 C.3       1 <0>        -0.0852
      3 H1          0.6872   -0.6011   -1.1198 H         1 <0>         0.1099
      4 C3         -1.3254   -0.7534   -0.3667 C.3       1 <0>        -0.0484
      5 S1         -2.0312   -0.4362   -2.0074 S.3       1 <0>        -0.2442
      6 C4          0.7254   -0.5568    1.0135 C.2       1 <0>         0.5515
      7 O1          0.1008   -1.2093    1.8229 O.2       1 <0>        -0.5208
      8 N1          1.9836   -0.1626    1.2925 N.am      1 <0>        -0.5995
      9 C5          2.8501    0.6361    0.4066 C.3       1 <0>         0.1226
     10 C6          4.2940    0.2983    0.8546 C.3       1 <0>        -0.1023
     11 H2          4.6278   -0.6437    0.4196 H         1 <0>         0.1156
     12 C7          4.1217    0.1712    2.3913 C.3       1 <0>        -0.1168
     13 C8          2.7171   -0.4523    2.5333 C.3       1 <0>         0.1536
     14 H3          2.8041   -1.5303    2.6694 H         1 <0>         0.1168
     15 C9          1.9983    0.1591    3.7083 C.2       1 <0>         0.4513
     16 O2          0.9746    0.7771    3.5352 O.2       1 <0>        -0.4562
     17 O3          2.4954    0.0172    4.9470 O.3       1 <0>        -0.3756
     18 C10         1.7622    0.6229    6.0136 C.3       1 <0>         0.2135
     19 H4          0.7326    0.2657    5.9956 H         1 <0>         0.1068
     20 C11         2.4077    0.2528    7.3515 C.3       1 <0>         0.0693
     21 H5          2.4373   -0.8320    7.4540 H         1 <0>         0.0656
     22 C12         3.8340    0.8099    7.3928 C.3       1 <0>         0.1221
     23 H6          4.4300    0.3449    6.6076 H         1 <0>         0.0830
     24 C13         3.7853    2.3247    7.1701 C.3       1 <0>         0.1070
     25 H7          4.8001    2.7216    7.1429 H         1 <0>         0.0677
     26 C14         3.0866    2.6147    5.8392 C.3       1 <0>        -0.0067
     27 H8          3.6632    2.1788    5.0234 H         1 <0>         0.0545
     28 O4          1.7768    2.0431    5.8556 O.3       1 <0>        -0.3159
     29 C15         2.9823    4.1049    5.6407 C.2       1 <0>         0.5068
     30 O5          3.9925    4.7742    5.5062 O.co2     1 <0>        -0.6858
     31 O6          1.8877    4.6413    5.6145 O.co2     1 <0>        -0.6600
     32 O7          3.0600    2.9410    8.2360 O.3       1 <0>        -0.5291
     33 O8          4.4195    0.5308    8.6661 O.3       1 <0>        -0.5395
     34 O9          1.6438    0.8129    8.4214 O.3       1 <0>        -0.5021
     35 S2          5.4361    1.6443    0.4366 S.3       1 <0>        -0.0699
     36 C16         7.0252    0.9927    0.8302 C.ar      1 <0>        -0.0827
     37 C17         7.1568   -0.3352    1.2185 C.ar      1 <0>        -0.1340
     38 C18         8.4037   -0.8424    1.5262 C.ar      1 <0>        -0.1008
     39 C19         9.5208   -0.0306    1.4485 C.ar      1 <0>        -0.1256
     40 C20         9.3935    1.2915    1.0629 C.ar      1 <0>        -0.0994
     41 C21         8.1506    1.8039    0.7477 C.ar      1 <0>        -0.0966
     42 H9          1.0535    1.7402   -0.3900 H         1 <0>         0.0691
     43 H10        -0.4143    1.6042   -1.3876 H         1 <0>         0.0825
     44 H11        -0.5507    1.7509    0.3810 H         1 <0>         0.0698
     45 H12        -1.2962   -1.8278   -0.1852 H         1 <0>         0.0923
     46 H13        -1.9420   -0.2731    0.3931 H         1 <0>         0.0938
     47 H14        -3.2629   -0.9725   -1.9409 H         1 <0>         0.0904
     48 H15         2.6983    0.3474   -0.6334 H         1 <0>         0.1012
     49 H16         2.6508    1.6995    0.5390 H         1 <0>         0.0919
     50 H17         4.8825   -0.4867    2.8116 H         1 <0>         0.1045
     51 H18         4.1539    1.1521    2.8655 H         1 <0>         0.1033
     52 H19         2.9896    3.9024    8.1594 H         1 <0>         0.3753
     53 H20         4.4759   -0.4117    8.8750 H         1 <0>         0.3675
     54 H21         0.7272    0.5062    8.4529 H         1 <0>         0.3669
     55 H22         6.2849   -0.9696    1.2798 H         1 <0>         0.1227
     56 H23         8.5068   -1.8741    1.8284 H         1 <0>         0.1245
     57 H24        10.4947   -0.4300    1.6897 H         1 <0>         0.1237
     58 H25        10.2679    1.9226    1.0036 H         1 <0>         0.1279
     59 H26         8.0526    2.8350    0.4416 H         1 <0>         0.1296
@<TRIPOS>BOND
     1    1    2 1
     2    1   42 1
     3    1   43 1
     4    1   44 1
     5    2    3 1
     6    2    4 1
     7    2    6 1
     8    4    5 1
     9    4   45 1
    10    4   46 1
    11    5   47 1
    12    6    7 2
    13    6    8 am
    14    8   13 1
    15    8    9 1
    16    9   10 1
    17    9   48 1
    18    9   49 1
    19   10   11 1
    20   10   12 1
    21   10   35 1
    22   12   13 1
    23   12   50 1
    24   12   51 1
    25   13   14 1
    26   13   15 1
    27   15   16 2
    28   15   17 1
    29   17   18 1
    30   18   19 1
    31   18   28 1
    32   18   20 1
    33   20   21 1
    34   20   22 1
    35   20   34 1
    36   22   23 1
    37   22   24 1
    38   22   33 1
    39   24   25 1
    40   24   26 1
    41   24   32 1
    42   26   27 1
    43   26   28 1
    44   26   29 1
    45   29   30 2
    46   29   31 1
    47   32   52 1
    48   33   53 1
    49   34   54 1
    50   35   36 1
    51   36   41 ar
    52   36   37 ar
    53   37   38 ar
    54   37   55 1
    55   38   39 ar
    56   38   56 1
    57   39   40 ar
    58   39   57 1
    59   40   41 ar
    60   40   58 1
    61   41   59 1
@<TRIPOS>MOLECULE
ZINC11582334
   52    54     0     0     0
SMALL
USER_CHARGES
1-[2-hydroxy-4-[[(2S,3S,4R,5S,6R)-3,4,5-trihydroxy-6-(hydroxymethyl)tetrahydropyran-2-yl]methoxy]phenyl]-2-(2-methylthiazol-4-yl)ethanone
@<TRIPOS>ATOM
      1 C1          0.7424    6.3236    1.9401 C.3       1 <0>        -0.0649
      2 C2         -0.0889    5.5237    0.9705 C.2       1 <0>         0.0994
      3 N1         -0.3195    4.2312    0.9526 N.2       1 <0>        -0.4914
      4 C3         -1.0777    3.6815    0.0272 C.2       1 <0>         0.0698
      5 C4         -1.6194    4.4845   -0.9239 C.2       1 <0>        -0.2145
      6 S1         -0.9882    6.0751   -0.4090 S.3       1 <0>         0.0335
      7 C5         -1.3330    2.1963    0.0203 C.3       1 <0>        -0.0834
      8 C6         -0.0178    1.4607    0.0101 C.2       1 <0>         0.3990
      9 O1          1.0247    2.0816    0.0035 O.2       1 <0>        -0.4208
     10 C7          0.0021   -0.0041    0.0020 C.ar      1 <0>        -0.2395
     11 C8         -1.2001   -0.7249    0.0096 C.ar      1 <0>        -0.0176
     12 C9         -1.1790   -2.0889    0.0012 C.ar      1 <0>        -0.2313
     13 C10         0.0329   -2.7752   -0.0141 C.ar      1 <0>         0.1853
     14 C11         1.2326   -2.0784   -0.0218 C.ar      1 <0>        -0.1976
     15 C12         1.2274   -0.6942   -0.0193 C.ar      1 <0>         0.2120
     16 O2          2.3968   -0.0077   -0.0325 O.3       1 <0>        -0.4768
     17 O3          0.0402   -4.1318   -0.0219 O.3       1 <0>        -0.2976
     18 C13        -1.2294   -4.7875   -0.0138 C.3       1 <0>         0.0696
     19 C14        -1.0208   -6.3032   -0.0244 C.3       1 <0>         0.1047
     20 H1         -0.3794   -6.5877    0.8098 H         1 <0>         0.0950
     21 C15        -2.3743   -7.0058    0.1095 C.3       1 <0>         0.0872
     22 H2         -2.8265   -6.7460    1.0666 H         1 <0>         0.0875
     23 C16        -2.1634   -8.5213    0.0373 C.3       1 <0>         0.0863
     24 H3         -3.1287   -9.0261    0.0755 H         1 <0>         0.0751
     25 C17        -1.4570   -8.8656   -1.2776 C.3       1 <0>         0.0484
     26 H4         -2.0942   -8.5878   -2.1171 H         1 <0>         0.0819
     27 C18        -0.1388   -8.0911   -1.3576 C.3       1 <0>         0.0655
     28 H5          0.5139   -8.3992   -0.5409 H         1 <0>         0.0808
     29 O4         -0.4037   -6.6907   -1.2537 O.3       1 <0>        -0.3421
     30 C19         0.5443   -8.3834   -2.6951 C.3       1 <0>         0.0815
     31 O5          1.8265   -7.7531   -2.7228 O.3       1 <0>        -0.5587
     32 O6         -1.1900  -10.2687   -1.3245 O.3       1 <0>        -0.5606
     33 O7         -1.3578   -8.9464    1.1383 O.3       1 <0>        -0.5548
     34 O8         -3.2343   -6.5924   -0.9542 O.3       1 <0>        -0.5438
     35 H6          1.7698    6.3771    1.5799 H         1 <0>         0.0921
     36 H7          0.3339    7.3307    2.0241 H         1 <0>         0.0869
     37 H8          0.7248    5.8416    2.9176 H         1 <0>         0.0938
     38 H9         -2.2563    4.2323   -1.7589 H         1 <0>         0.1965
     39 H10        -1.8579    1.9521   -0.7951 H         1 <0>         0.1002
     40 H11        -1.8967    1.9204    0.9115 H         1 <0>         0.1120
     41 H12        -2.1439   -0.1999    0.0218 H         1 <0>         0.1382
     42 H13        -2.1078   -2.6401    0.0067 H         1 <0>         0.1372
     43 H14         2.1695   -2.6155   -0.0341 H         1 <0>         0.1445
     44 H15         2.7487    0.1868    0.8470 H         1 <0>         0.4000
     45 H16        -1.7797   -4.5028    0.8830 H         1 <0>         0.0822
     46 H17        -1.7964   -4.4926   -0.8968 H         1 <0>         0.0863
     47 H18         0.6660   -9.4601   -2.8133 H         1 <0>         0.0594
     48 H19        -0.0688   -7.9955   -3.5086 H         1 <0>         0.0571
     49 H20         2.3175   -7.8964   -3.5434 H         1 <0>         0.3828
     50 H21        -0.7390  -10.5565   -2.1300 H         1 <0>         0.3857
     51 H22        -1.1793   -9.8967    1.1514 H         1 <0>         0.3941
     52 H23        -4.1112   -6.9994   -0.9319 H         1 <0>         0.3838
@<TRIPOS>BOND
     1    1    2 1
     2    1   35 1
     3    1   36 1
     4    1   37 1
     5    2    6 1
     6    2    3 2
     7    3    4 1
     8    4    5 2
     9    4    7 1
    10    5    6 1
    11    5   38 1
    12    7    8 1
    13    7   39 1
    14    7   40 1
    15    8    9 2
    16    8   10 1
    17   10   15 ar
    18   10   11 ar
    19   11   12 ar
    20   11   41 1
    21   12   13 ar
    22   12   42 1
    23   13   14 ar
    24   13   17 1
    25   14   15 ar
    26   14   43 1
    27   15   16 1
    28   16   44 1
    29   17   18 1
    30   18   19 1
    31   18   45 1
    32   18   46 1
    33   19   20 1
    34   19   29 1
    35   19   21 1
    36   21   22 1
    37   21   23 1
    38   21   34 1
    39   23   24 1
    40   23   25 1
    41   23   33 1
    42   25   26 1
    43   25   27 1
    44   25   32 1
    45   27   28 1
    46   27   29 1
    47   27   30 1
    48   30   31 1
    49   30   47 1
    50   30   48 1
    51   31   49 1
    52   32   50 1
    53   33   51 1
    54   34   52 1
@<TRIPOS>MOLECULE
ZINC21510438
   47    49     0     0     0
SMALL
USER_CHARGES
[2-[(3,5-dicarbamoylphenyl)amino]-2-oxo-ethyl] 3-(4-fluorophenyl)imidazole-4-carboxylate
@<TRIPOS>ATOM
      1 C1         -5.2241    6.3699    1.3320 C.ar      1 <0>        -0.0444
      2 C2         -3.9596    5.8247    1.2268 C.ar      1 <0>        -0.1036
      3 C3         -3.0603    6.3324    0.3042 C.ar      1 <0>         0.1205
      4 C4         -3.4288    7.3836   -0.5186 C.ar      1 <0>        -0.1437
      5 C5         -4.6943    7.9277   -0.4203 C.ar      1 <0>        -0.0831
      6 C6         -5.5973    7.4201    0.5041 C.ar      1 <0>         0.0839
      7 N1         -6.8823    7.9710    0.6054 N.pl3     1 <0>        -0.3852
      8 C7         -7.1870    9.2780    0.7200 C.2       1 <0>         0.2381
      9 N2         -8.4871    9.4110    0.7961 N.2       1 <0>        -0.4909
     10 C8         -9.0671    8.2130    0.7287 C.2       1 <0>         0.0961
     11 C9         -8.0785    7.2756    0.6034 C.2       1 <0>        -0.0845
     12 C10        -8.2515    5.8247    0.4951 C.2       1 <0>         0.5476
     13 O1         -9.3679    5.3425    0.5119 O.2       1 <0>        -0.4891
     14 O2         -7.1727    5.0238    0.3767 O.3       1 <0>        -0.3278
     15 C11        -7.4193    3.5966    0.2740 C.3       1 <0>         0.0470
     16 C12        -6.1062    2.8676    0.1498 C.2       1 <0>         0.5160
     17 O3         -5.0650    3.4897    0.1480 O.2       1 <0>        -0.4859
     18 N3         -6.0889    1.5244    0.0407 N.am      1 <0>        -0.6831
     19 C13        -4.8688    0.8382    0.0364 C.ar      1 <0>         0.1465
     20 C14        -4.7281   -0.3187   -0.7159 C.ar      1 <0>        -0.0635
     21 C15        -3.5129   -1.0053   -0.7224 C.ar      1 <0>        -0.1198
     22 C16        -2.4405   -0.5275    0.0279 C.ar      1 <0>        -0.0711
     23 C17        -2.5852    0.6348    0.7825 C.ar      1 <0>        -0.1196
     24 C18        -3.8048    1.3137    0.7887 C.ar      1 <0>        -0.0418
     25 C19        -1.4498    1.1453    1.5807 C.2       1 <0>         0.5645
     26 O4         -1.5768    2.1593    2.2387 O.2       1 <0>        -0.5351
     27 N4         -0.2743    0.4861    1.5785 N.am      1 <0>        -0.8721
     28 C20        -3.3639   -2.2388   -1.5244 C.2       1 <0>         0.5660
     29 O5         -4.2999   -2.6550   -2.1787 O.2       1 <0>        -0.5417
     30 N5         -2.1903   -2.9015   -1.5298 N.am      1 <0>        -0.8713
     31 F1         -1.8217    5.8017    0.2068 F         1 <0>        -0.1313
     32 H1         -5.9237    5.9767    2.0548 H         1 <0>         0.1322
     33 H2         -3.6704    5.0049    1.8676 H         1 <0>         0.1440
     34 H3         -2.7260    7.7784   -1.2373 H         1 <0>         0.1443
     35 H4         -4.9812    8.7478   -1.0618 H         1 <0>         0.1394
     36 H5         -6.4723   10.0871    0.7493 H         1 <0>         0.2203
     37 H6        -10.1285    8.0171    0.7663 H         1 <0>         0.1928
     38 H7         -7.9474    3.2500    1.1746 H         1 <0>         0.1118
     39 H8         -8.0365    3.3941   -0.6137 H         1 <0>         0.1101
     40 H9         -7.0335    0.9673   -0.0450 H         1 <0>         0.4438
     41 H10        -5.5598   -0.6887   -1.2970 H         1 <0>         0.1470
     42 H11        -1.4990   -1.0567    0.0243 H         1 <0>         0.1305
     43 H12        -3.9189    2.2124    1.3766 H         1 <0>         0.1531
     44 H13         0.5703    0.8658    2.1722 H         1 <0>         0.4307
     45 H14        -0.1595   -0.4316    0.9830 H         1 <0>         0.4149
     46 H15        -2.0795   -3.8190   -2.1264 H         1 <0>         0.4312
     47 H16        -1.3433   -2.5248   -0.9376 H         1 <0>         0.4164
@<TRIPOS>BOND
     1    1    6 ar
     2    1    2 ar
     3    1   32 1
     4    2    3 ar
     5    2   33 1
     6    3    4 ar
     7    3   31 1
     8    4    5 ar
     9    4   34 1
    10    5    6 ar
    11    5   35 1
    12    6    7 1
    13    7   11 1
    14    7    8 1
    15    8    9 2
    16    8   36 1
    17    9   10 1
    18   10   11 2
    19   10   37 1
    20   11   12 1
    21   12   13 2
    22   12   14 1
    23   14   15 1
    24   15   16 1
    25   15   38 1
    26   15   39 1
    27   16   17 2
    28   16   18 am
    29   18   19 1
    30   18   40 1
    31   19   24 ar
    32   19   20 ar
    33   20   21 ar
    34   20   41 1
    35   21   22 ar
    36   21   28 1
    37   22   23 ar
    38   22   42 1
    39   23   24 ar
    40   23   25 1
    41   24   43 1
    42   25   26 2
    43   25   27 am
    44   27   44 1
    45   27   45 1
    46   28   29 2
    47   28   30 am
    48   30   46 1
    49   30   47 1
@<TRIPOS>MOLECULE
ZINC33838192
   69    73     0     0     0
SMALL
USER_CHARGES

@<TRIPOS>ATOM
      1 C1         -0.0173    1.4248    0.0099 C.3       1 <0>         0.0238
      2 O1          0.0021   -0.0041    0.0020 O.3       1 <0>        -0.3065
      3 C2          0.6062   -0.6075   -1.0564 C.ar      1 <0>         0.1052
      4 C3          1.1729    0.1590   -2.0621 C.ar      1 <0>        -0.1840
      5 C4          1.7870   -0.4560   -3.1371 C.ar      1 <0>        -0.0632
      6 C5          1.8372   -1.8356   -3.2121 C.ar      1 <0>        -0.1166
      7 C6          1.2734   -2.6062   -2.2124 C.ar      1 <0>        -0.1065
      8 C7          0.6617   -1.9961   -1.1290 C.ar      1 <0>         0.0777
      9 O2          0.1119   -2.7526   -0.1417 O.3       1 <0>        -0.4859
     10 C8          2.4028    0.3792   -4.2300 C.3       1 <0>         0.1463
     11 H1          2.6872    1.3577   -3.8432 H         1 <0>         0.0929
     12 C9          1.4449    0.5293   -5.3731 C.3       1 <0>        -0.1769
     13 H2          0.9121   -0.4067   -5.5409 H         1 <0>         0.1090
     14 C10         0.5444    1.6976   -5.6713 C.3       1 <0>         0.0714
     15 O3          0.3798    1.6054   -7.1209 O.3       1 <0>        -0.3661
     16 C11         1.5344    0.9180   -7.6839 C.3       1 <0>         0.1482
     17 H3          1.9823    1.5169   -8.4768 H         1 <0>         0.1028
     18 C12         2.4918    0.7767   -6.5393 C.3       1 <0>        -0.1682
     19 H4          3.0245    1.7127   -6.3712 H         1 <0>         0.1030
     20 C13         3.3978   -0.3881   -6.2448 C.3       1 <0>         0.0730
     21 O4          3.5626   -0.2993   -4.7930 O.3       1 <0>        -0.3679
     22 C14         1.1317   -0.4340   -8.2140 C.ar      1 <0>        -0.0929
     23 C15         0.1282   -1.1495   -7.5876 C.ar      1 <0>        -0.0975
     24 C16        -0.2448   -2.3901   -8.0701 C.ar      1 <0>        -0.1465
     25 C17         0.3871   -2.9189   -9.1841 C.ar      1 <0>         0.1029
     26 C18         1.3969   -2.1985   -9.8148 C.ar      1 <0>         0.1081
     27 C19         1.7627   -0.9535   -9.3290 C.ar      1 <0>        -0.1647
     28 O5          2.0201   -2.7133  -10.9085 O.3       1 <0>        -0.3061
     29 C20         3.0472   -1.9181  -11.5042 C.3       1 <0>         0.0256
     30 O6          0.0216   -4.1394   -9.6597 O.3       1 <0>        -0.2830
     31 C21        -1.0219   -4.8219   -8.9616 C.3       1 <0>         0.2241
     32 H5         -0.7989   -4.8325   -7.8947 H         1 <0>         0.0662
     33 C22        -1.1246   -6.2601   -9.4760 C.3       1 <0>         0.0677
     34 H6         -0.1942   -6.7886   -9.2685 H         1 <0>         0.0722
     35 C23        -2.2837   -6.9664   -8.7662 C.3       1 <0>         0.0796
     36 H7         -2.0781   -7.0202   -7.6971 H         1 <0>         0.0794
     37 C24        -3.5720   -6.1717   -9.0009 C.3       1 <0>         0.0905
     38 H8         -4.3918   -6.6369   -8.4535 H         1 <0>         0.0749
     39 C25        -3.3747   -4.7369   -8.5048 C.3       1 <0>         0.1117
     40 H9         -3.1828   -4.7464   -7.4319 H         1 <0>         0.0795
     41 O7         -2.2627   -4.1484   -9.1825 O.3       1 <0>        -0.3610
     42 C26        -4.6368   -3.9203   -8.7901 C.3       1 <0>         0.0896
     43 O8         -4.4979   -2.6155   -8.2242 O.3       1 <0>        -0.5678
     44 O9         -3.8770   -6.1579  -10.3969 O.3       1 <0>        -0.5279
     45 O10        -2.4324   -8.2871   -9.2915 O.3       1 <0>        -0.5460
     46 O11        -1.3625   -6.2474  -10.8850 O.3       1 <0>        -0.5215
     47 H10         1.0053    1.8021    0.0021 H         1 <0>         0.0567
     48 H11        -0.5445    1.7859   -0.8732 H         1 <0>         0.0561
     49 H12        -0.5275    1.7763    0.9067 H         1 <0>         0.1029
     50 H13         1.1344    1.2368   -2.0063 H         1 <0>         0.1338
     51 H14         2.3175   -2.3124   -4.0537 H         1 <0>         0.1304
     52 H15         1.3136   -3.6837   -2.2735 H         1 <0>         0.1372
     53 H16        -0.8162   -2.9794   -0.2906 H         1 <0>         0.3872
     54 H17        -0.4144    1.5869   -5.1648 H         1 <0>         0.0955
     55 H18         1.0237    2.6367   -5.3948 H         1 <0>         0.0736
     56 H19         2.9234   -1.3285   -6.5251 H         1 <0>         0.0731
     57 H20         4.3564   -0.2707   -6.7503 H         1 <0>         0.0965
     58 H21        -0.3652   -0.7385   -6.7193 H         1 <0>         0.1287
     59 H22        -1.0286   -2.9474   -7.5785 H         1 <0>         0.1354
     60 H23         2.5435   -0.3907   -9.8189 H         1 <0>         0.1375
     61 H24         3.4605   -2.4439  -12.3649 H         1 <0>         0.1020
     62 H25         2.6276   -0.9654  -11.8275 H         1 <0>         0.0561
     63 H26         3.8368   -1.7385  -10.7746 H         1 <0>         0.0552
     64 H27        -4.7790   -3.8358   -9.8675 H         1 <0>         0.0698
     65 H28        -5.4995   -4.4183   -8.3476 H         1 <0>         0.0640
     66 H29        -5.2629   -2.0415   -8.3669 H         1 <0>         0.3841
     67 H30        -4.0104   -7.0361  -10.7790 H         1 <0>         0.3852
     68 H31        -1.6496   -8.8443   -9.1821 H         1 <0>         0.3871
     69 H32        -0.6683   -5.8106  -11.3972 H         1 <0>         0.3832
@<TRIPOS>BOND
     1    1    2 1
     2    1   47 1
     3    1   48 1
     4    1   49 1
     5    2    3 1
     6    3    8 ar
     7    3    4 ar
     8    4    5 ar
     9    4   50 1
    10    5    6 ar
    11    5   10 1
    12    6    7 ar
    13    6   51 1
    14    7    8 ar
    15    7   52 1
    16    8    9 1
    17    9   53 1
    18   10   11 1
    19   10   21 1
    20   10   12 1
    21   12   13 1
    22   12   18 1
    23   12   14 1
    24   14   15 1
    25   14   54 1
    26   14   55 1
    27   15   16 1
    28   16   17 1
    29   16   18 1
    30   16   22 1
    31   18   19 1
    32   18   20 1
    33   20   21 1
    34   20   56 1
    35   20   57 1
    36   22   27 ar
    37   22   23 ar
    38   23   24 ar
    39   23   58 1
    40   24   25 ar
    41   24   59 1
    42   25   26 ar
    43   25   30 1
    44   26   27 ar
    45   26   28 1
    46   27   60 1
    47   28   29 1
    48   29   61 1
    49   29   62 1
    50   29   63 1
    51   30   31 1
    52   31   32 1
    53   31   41 1
    54   31   33 1
    55   33   34 1
    56   33   35 1
    57   33   46 1
    58   35   36 1
    59   35   37 1
    60   35   45 1
    61   37   38 1
    62   37   39 1
    63   37   44 1
    64   39   40 1
    65   39   41 1
    66   39   42 1
    67   42   43 1
    68   42   64 1
    69   42   65 1
    70   43   66 1
    71   44   67 1
    72   45   68 1
    73   46   69 1
@<TRIPOS>MOLECULE
ZINC16312055
   62    64     0     0     0
SMALL
USER_CHARGES

@<TRIPOS>ATOM
      1 C1          0.5216    1.0249   -6.5882 C.3       1 <0>        -0.1141
      2 C2          0.8125   -0.2927   -5.9171 C.ar      1 <0>        -0.1054
      3 C3          0.7361   -1.4681   -6.6420 C.ar      1 <0>        -0.0908
      4 C4          1.0021   -2.6770   -6.0299 C.ar      1 <0>        -0.1515
      5 C5          1.3467   -2.7118   -4.6849 C.ar      1 <0>         0.1713
      6 C6          1.4225   -1.5299   -3.9599 C.ar      1 <0>        -0.1296
      7 C7          1.1608   -0.3234   -4.5794 C.ar      1 <0>        -0.0658
      8 C8          1.2488    0.9603   -3.7948 C.3       1 <0>        -0.1154
      9 N1          1.6166   -3.9362   -4.0610 N.am      1 <0>        -0.4028
     10 C9          1.5771   -5.1386   -4.6700 C.2       1 <0>         0.5439
     11 O1          1.3061   -5.3607   -5.8382 O.2       1 <0>        -0.5095
     12 C10         1.9268   -6.1263   -3.6414 C.2       1 <0>        -0.3531
     13 C11         2.0189   -7.5001   -3.7881 C.2       1 <0>         0.2945
     14 N2          2.4801   -8.2580   -2.7709 N.pl3     1 <0>        -0.6267
     15 C12         2.4615   -9.6516   -2.8735 C.ar      1 <0>         0.1989
     16 C13         1.9739  -10.2584   -4.0242 C.ar      1 <0>        -0.1882
     17 C14         1.9569  -11.6358   -4.1223 C.ar      1 <0>         0.0124
     18 C15         2.4245  -12.4109   -3.0768 C.ar      1 <0>        -0.6883
     19 C16         2.9101  -11.8101   -1.9298 C.ar      1 <0>         0.0388
     20 C17         2.9357  -10.4331   -1.8275 C.ar      1 <0>        -0.1715
     21 S1          2.4010  -14.1680   -3.2062 S.o2      1 <0>         2.7018
     22 O2          2.1489  -14.6681   -1.9002 O.2       1 <0>        -0.9549
     23 O3          1.5707  -14.4824   -4.3158 O.2       1 <0>        -0.9529
     24 N3          3.9330  -14.6498   -3.6099 N.pl3     1 <0>        -1.0881
     25 C18         4.4744  -14.3360   -4.9346 C.3       1 <0>         0.1963
     26 C19         4.3902  -12.8275   -5.1757 C.3       1 <0>         0.0441
     27 O4          5.0217  -12.1366   -4.0959 O.3       1 <0>        -0.5515
     28 C20         5.9357  -14.7834   -5.0074 C.3       1 <0>         0.0855
     29 O5          6.4638  -14.4774   -6.2995 O.3       1 <0>        -0.5697
     30 C21         3.6626  -15.0696   -6.0041 C.3       1 <0>         0.0509
     31 O6          3.6229  -16.4649   -5.6984 O.3       1 <0>        -0.5629
     32 C22         2.1577   -5.3383   -2.4215 C.2       1 <0>         0.1355
     33 N4          1.9712   -4.0891   -2.7210 N.2       1 <0>        -0.2476
     34 C23         2.5454   -5.8818   -1.0705 C.3       1 <0>        -0.0937
     35 H1          1.4428    1.4310   -7.0061 H         1 <0>         0.0697
     36 H2         -0.2040    0.8732   -7.3874 H         1 <0>         0.0661
     37 H3          0.1155    1.7235   -5.8566 H         1 <0>         0.0683
     38 H4          0.4678   -1.4404   -7.6878 H         1 <0>         0.1292
     39 H5          0.9419   -3.5945   -6.5964 H         1 <0>         0.1522
     40 H6          1.6899   -1.5537   -2.9138 H         1 <0>         0.1334
     41 H7          0.2788    1.1813   -3.3496 H         1 <0>         0.0722
     42 H8          1.9945    0.8541   -3.0069 H         1 <0>         0.0670
     43 H9          1.5370    1.7739   -4.4605 H         1 <0>         0.0710
     44 H10         1.7218   -7.9653   -4.7164 H         1 <0>         0.1774
     45 H11         2.8244   -7.8353   -1.9686 H         1 <0>         0.4214
     46 H12         1.6082   -9.6537   -4.8409 H         1 <0>         0.1409
     47 H13         1.5777  -12.1083   -5.0164 H         1 <0>         0.1507
     48 H14         3.2742  -12.4184   -1.1150 H         1 <0>         0.1448
     49 H15         3.3199   -9.9645   -0.9335 H         1 <0>         0.1404
     50 H16         4.4720  -15.1397   -2.9693 H         1 <0>         0.4216
     51 H17         4.8946  -12.5802   -6.1098 H         1 <0>         0.0799
     52 H18         3.3442  -12.5272   -5.2370 H         1 <0>         0.0565
     53 H19         5.0059  -11.1736   -4.1824 H         1 <0>         0.3789
     54 H20         6.5140  -14.2608   -4.2454 H         1 <0>         0.0622
     55 H21         5.9957  -15.8581   -4.8356 H         1 <0>         0.0629
     56 H22         7.3886  -14.7340   -6.4173 H         1 <0>         0.3881
     57 H23         2.6474  -14.6732   -6.0252 H         1 <0>         0.0816
     58 H24         4.1297  -14.9241   -6.9781 H         1 <0>         0.0671
     59 H25         3.1235  -16.9932   -6.3361 H         1 <0>         0.3856
     60 H26         3.6287   -5.9918   -1.0204 H         1 <0>         0.0941
     61 H27         2.2138   -5.1934   -0.2931 H         1 <0>         0.0977
     62 H28         2.0742   -6.8532   -0.9208 H         1 <0>         0.0794
@<TRIPOS>BOND
     1    1    2 1
     2    1   35 1
     3    1   36 1
     4    1   37 1
     5    2    7 ar
     6    2    3 ar
     7    3    4 ar
     8    3   38 1
     9    4    5 ar
    10    4   39 1
    11    5    6 ar
    12    5    9 1
    13    6    7 ar
    14    6   40 1
    15    7    8 1
    16    8   41 1
    17    8   42 1
    18    8   43 1
    19    9   33 1
    20    9   10 am
    21   10   11 2
    22   10   12 1
    23   12   13 2
    24   12   32 1
    25   13   14 1
    26   13   44 1
    27   14   15 1
    28   14   45 1
    29   15   20 ar
    30   15   16 ar
    31   16   17 ar
    32   16   46 1
    33   17   18 ar
    34   17   47 1
    35   18   19 ar
    36   18   21 1
    37   19   20 ar
    38   19   48 1
    39   20   49 1
    40   21   22 2
    41   21   23 2
    42   21   24 1
    43   24   25 1
    44   24   50 1
    45   25   26 1
    46   25   28 1
    47   25   30 1
    48   26   27 1
    49   26   51 1
    50   26   52 1
    51   27   53 1
    52   28   29 1
    53   28   54 1
    54   28   55 1
    55   29   56 1
    56   30   31 1
    57   30   57 1
    58   30   58 1
    59   31   59 1
    60   32   33 2
    61   32   34 1
    62   34   60 1
    63   34   61 1
    64   34   62 1
@<TRIPOS>MOLECULE
ZINC15276750
   55    59     0     0     0
SMALL
USER_CHARGES

@<TRIPOS>ATOM
      1 C1         -0.0182    1.3678    0.0073 C.ar      1 <0>        -0.1167
      2 C2          1.1677    2.0996    0.0009 C.ar      1 <0>        -0.0955
      3 C3          2.3768    1.4738   -0.0146 C.ar      1 <0>        -0.1190
      4 C4          2.4332    0.0711   -0.0241 C.ar      1 <0>        -0.0262
      5 C5          1.2280   -0.6738   -0.0175 C.ar      1 <0>        -0.0476
      6 C6         -0.0018    0.0070   -0.0015 C.ar      1 <0>        -0.0875
      7 C7          1.2828   -2.0778   -0.0261 C.ar      1 <0>        -0.0795
      8 C8          2.4882   -2.7107   -0.0406 C.ar      1 <0>        -0.1114
      9 C9          3.6784   -1.9893   -0.0467 C.ar      1 <0>        -0.0734
     10 C10         3.6674   -0.6117   -0.0396 C.ar      1 <0>         0.1031
     11 N1          4.8697    0.1038   -0.0468 N.am      1 <0>        -0.5259
     12 C11         5.5051    0.4625    1.0749 C.2       1 <0>         0.5194
     13 O1          5.1295    0.2188    2.2015 O.2       1 <0>        -0.4194
     14 C12         6.7652    1.2184    0.7181 C.3       1 <0>        -0.1281
     15 H1          7.6634    0.7546    1.1259 H         1 <0>         0.1787
     16 C13         6.6112    2.6926    1.1463 C.3       1 <0>         0.1123
     17 H2          7.5891    3.1421    1.3187 H         1 <0>         0.1801
     18 N2          5.9346    3.3499   -0.0009 N.4       1 <0>        -0.4956
     19 C14         6.5694    2.7395   -1.1968 C.3       1 <0>         0.0152
     20 C15         6.7466    1.2341   -0.8340 C.3       1 <0>        -0.1119
     21 H3          7.6397    0.7889   -1.2726 H         1 <0>         0.1827
     22 C16         5.4811    0.4804   -1.1759 C.2       1 <0>         0.5190
     23 O2          5.0811    0.2551   -2.2979 O.2       1 <0>        -0.4359
     24 C17         5.6609    2.8912   -2.4185 C.3       1 <0>        -0.1504
     25 C18         5.4464    4.3548   -2.7063 C.2       1 <0>         0.5116
     26 O3          5.9687    5.1940   -2.0036 O.2       1 <0>        -0.5253
     27 N3          4.6740    4.7313   -3.7447 N.am      1 <0>        -0.8434
     28 C19         7.9125    3.3710   -1.4582 C.2       1 <0>         0.5203
     29 O4          8.3125    4.2720   -0.7409 O.co2     1 <0>        -0.6404
     30 O5          8.5992    2.9808   -2.3871 O.co2     1 <0>        -0.6276
     31 C20         5.7623    2.7930    2.3873 C.ar      1 <0>        -0.1529
     32 C21         4.4279    3.1367    2.2863 C.ar      1 <0>        -0.1142
     33 C22         3.6486    3.2295    3.4244 C.ar      1 <0>        -0.1040
     34 C23         4.2021    2.9781    4.6665 C.ar      1 <0>        -0.0798
     35 C24         5.5355    2.6337    4.7728 C.ar      1 <0>        -0.1269
     36 C25         6.3184    2.5348    3.6315 C.ar      1 <0>         0.1615
     37 O6          7.6292    2.1906    3.7330 O.3       1 <0>        -0.4910
     38 H4         -0.9644    1.8883    0.0241 H         1 <0>         0.1310
     39 H5          1.1272    3.1788    0.0078 H         1 <0>         0.1268
     40 H6          3.2879    2.0536   -0.0198 H         1 <0>         0.0924
     41 H7         -0.9289   -0.5470    0.0040 H         1 <0>         0.1362
     42 H8          0.3696   -2.6544   -0.0208 H         1 <0>         0.1386
     43 H9          2.5214   -3.7902   -0.0471 H         1 <0>         0.1380
     44 H10         4.6215   -2.5154   -0.0579 H         1 <0>         0.1315
     45 H11         4.9452    3.1528    0.0128 H         1 <0>         0.3927
     46 H12         6.1289    2.4161   -3.2806 H         1 <0>         0.1534
     47 H13         4.7006    2.4157   -2.2184 H         1 <0>         0.1015
     48 H14         4.2562    4.0601   -4.3068 H         1 <0>         0.4063
     49 H15         4.5360    5.6733   -3.9300 H         1 <0>         0.4093
     50 H16         3.9933    3.3335    1.3173 H         1 <0>         0.1059
     51 H17         2.6060    3.4990    3.3434 H         1 <0>         0.1333
     52 H18         3.5914    3.0516    5.5542 H         1 <0>         0.1362
     53 H19         5.9673    2.4375    5.7431 H         1 <0>         0.1406
     54 H20         8.2262    2.9435    3.8420 H         1 <0>         0.4006
     55 H21         6.0981    4.3454    0.0161 H         1 <0>         0.4515
@<TRIPOS>BOND
     1    1    6 ar
     2    1    2 ar
     3    1   38 1
     4    2    3 ar
     5    2   39 1
     6    3    4 ar
     7    3   40 1
     8    4   10 ar
     9    4    5 ar
    10    5    6 ar
    11    5    7 ar
    12    6   41 1
    13    7    8 ar
    14    7   42 1
    15    8    9 ar
    16    8   43 1
    17    9   10 ar
    18    9   44 1
    19   10   11 1
    20   11   22 am
    21   11   12 am
    22   12   13 2
    23   12   14 1
    24   14   15 1
    25   14   20 1
    26   14   16 1
    27   16   17 1
    28   16   18 1
    29   16   31 1
    30   18   19 1
    31   18   45 1
    32   18   55 1
    33   19   20 1
    34   19   24 1
    35   19   28 1
    36   20   21 1
    37   20   22 1
    38   22   23 2
    39   24   25 1
    40   24   46 1
    41   24   47 1
    42   25   26 2
    43   25   27 am
    44   27   48 1
    45   27   49 1
    46   28   29 2
    47   28   30 1
    48   31   36 ar
    49   31   32 ar
    50   32   33 ar
    51   32   50 1
    52   33   34 ar
    53   33   51 1
    54   34   35 ar
    55   34   52 1
    56   35   36 ar
    57   35   53 1
    58   36   37 1
    59   37   54 1
@<TRIPOS>MOLECULE
ZINC15205563
   56    57     0     0     0
SMALL
USER_CHARGES
(2R,3S,4R,5R,6S)-6-[(2R,3R,4S,5R,6R)-5-acetamido-2-(hydroxymethyl)-6-methoxy-3-sulfo-tetrahydropyran-4-yl]oxy-4,5-dihydroxy-3-methyl-tetrahydropyran-2-carboxylic acid
@<TRIPOS>ATOM
      1 C1          4.3978   -1.4735   -0.1847 C.3       1 <0>        -0.1267
      2 C2          3.5469   -0.5582    0.6979 C.3       1 <0>        -0.0903
      3 H1          3.7566   -0.7660    1.7471 H         1 <0>         0.0845
      4 C3          3.8790    0.9047    0.3882 C.3       1 <0>         0.1196
      5 H2          3.3106    1.5561    1.0521 H         1 <0>         0.0720
      6 C4          3.5077    1.2040   -1.0675 C.3       1 <0>         0.0654
      7 H3          3.6892    2.2575   -1.2805 H         1 <0>         0.0651
      8 C5          2.0258    0.8863   -1.2837 C.3       1 <0>         0.2037
      9 H4          1.7660    1.0568   -2.3284 H         1 <0>         0.0990
     10 O1          1.7792   -0.4808   -0.9482 O.3       1 <0>        -0.3459
     11 C6          2.0635   -0.8078    0.4135 C.3       1 <0>         0.0573
     12 H5          1.4574   -0.1847    1.0711 H         1 <0>         0.0555
     13 C7          1.7417   -2.2594    0.6594 C.2       1 <0>         0.4824
     14 O2          1.4173   -2.9708   -0.2618 O.co2     1 <0>        -0.6113
     15 O3          1.2306    1.7323   -0.4506 O.3       1 <0>        -0.3895
     16 C8         -0.1739    1.6357   -0.6961 C.3       1 <0>         0.1105
     17 H6         -0.4351    0.6007   -0.9168 H         1 <0>         0.1011
     18 C9         -0.9440    2.1058    0.5417 C.3       1 <0>         0.1132
     19 H7         -2.0139    1.9840    0.3730 H         1 <0>         0.1379
     20 C10        -0.6328    3.5832    0.7958 C.3       1 <0>         0.2633
     21 H8          0.4305    3.6985    1.0059 H         1 <0>         0.0543
     22 O4         -0.9757    4.3485   -0.3613 O.3       1 <0>        -0.3686
     23 C11        -0.2507    3.9842   -1.5376 C.3       1 <0>         0.1495
     24 H9          0.8177    4.1047   -1.3580 H         1 <0>         0.0649
     25 C12        -0.5481    2.5237   -1.8868 C.3       1 <0>        -0.7044
     26 H10         0.0379    2.2308   -2.7580 H         1 <0>         0.1310
     27 S1         -2.3151    2.3354   -2.2517 S.o2      1 <0>         2.6356
     28 O5         -2.6006    0.9897   -2.6079 O.2       1 <0>        -1.0438
     29 O6         -3.0920    3.0048   -1.2681 O.2       1 <0>        -1.0131
     30 C13        -0.6774    4.8837   -2.6993 C.3       1 <0>         0.0626
     31 O7         -0.2573    6.2252   -2.4424 O.3       1 <0>        -0.5752
     32 O8         -1.3924    4.0448    1.9148 O.3       1 <0>        -0.3486
     33 C14        -1.0910    5.3850    2.3088 C.3       1 <0>         0.0330
     34 N1         -0.5365    1.3110    1.7029 N.am      1 <0>        -0.7145
     35 C15        -1.4364    1.0025    2.6577 C.2       1 <0>         0.5143
     36 O9         -2.6026    1.3017    2.5112 O.2       1 <0>        -0.5322
     37 C16        -0.9935    0.2859    3.9072 C.3       1 <0>        -0.1671
     38 O10         4.3014    0.3957   -1.9386 O.3       1 <0>        -0.5227
     39 O11         5.2771    1.1286    0.5807 O.3       1 <0>        -0.5509
     40 H11         4.0608   -1.3973   -1.2185 H         1 <0>         0.0807
     41 H12         5.4431   -1.1715   -0.1201 H         1 <0>         0.0485
     42 H13         4.2956   -2.5040    0.1557 H         1 <0>         0.0436
     43 H14        -0.2170    4.5292   -3.6215 H         1 <0>         0.0634
     44 H15        -1.7623    4.8559   -2.8008 H         1 <0>         0.1011
     45 H16        -0.4948    6.8521   -3.1393 H         1 <0>         0.3726
     46 H17        -1.2957    6.0622    1.4797 H         1 <0>         0.0526
     47 H18        -1.7088    5.6600    3.1636 H         1 <0>         0.0796
     48 H19        -0.0386    5.4548    2.5837 H         1 <0>         0.0313
     49 H20         0.3809    1.0068    1.7846 H         1 <0>         0.4017
     50 H21         0.0915    0.1816    3.9010 H         1 <0>         0.0766
     51 H22        -1.2983    0.8596    4.7825 H         1 <0>         0.0889
     52 H23        -1.4532   -0.7017    3.9420 H         1 <0>         0.0951
     53 H24         4.1153    0.5301   -2.8779 H         1 <0>         0.3670
     54 H25         5.5584    2.0364    0.4019 H         1 <0>         0.3661
     55 O12         1.8156   -2.7621    1.9019 O.co2     1 <0>        -0.7620
     56 O13        -2.5375    3.1310   -3.5300 O.3       1 <0>        -1.0774
@<TRIPOS>BOND
     1    1    2 1
     2    1   40 1
     3    1   41 1
     4    1   42 1
     5    2    3 1
     6    2   11 1
     7    2    4 1
     8    4    5 1
     9    4    6 1
    10    4   39 1
    11    6    7 1
    12    6    8 1
    13    6   38 1
    14    8    9 1
    15    8   10 1
    16    8   15 1
    17   10   11 1
    18   11   12 1
    19   11   13 1
    20   13   14 2
    21   13   55 1
    22   15   16 1
    23   16   17 1
    24   16   25 1
    25   16   18 1
    26   18   19 1
    27   18   20 1
    28   18   34 1
    29   20   21 1
    30   20   22 1
    31   20   32 1
    32   22   23 1
    33   23   24 1
    34   23   25 1
    35   23   30 1
    36   25   26 1
    37   25   27 1
    38   27   28 2
    39   27   29 2
    40   27   56 1
    41   30   31 1
    42   30   43 1
    43   30   44 1
    44   31   45 1
    45   32   33 1
    46   33   46 1
    47   33   47 1
    48   33   48 1
    49   34   35 am
    50   34   49 1
    51   35   36 2
    52   35   37 1
    53   37   50 1
    54   37   51 1
    55   37   52 1
    56   38   53 1
    57   39   54 1
@<TRIPOS>MOLECULE
ZINC35644405
   50    50     0     0     0
SMALL
USER_CHARGES

@<TRIPOS>ATOM
      1 C1         -0.0187    1.5258    0.0104 C.3       1 <0>        -0.1193
      2 C2          0.0021   -0.0041    0.0020 C.3       1 <0>        -0.1172
      3 C3         -1.4333   -0.5336    0.0129 C.3       1 <0>        -0.1170
      4 C4         -1.4126   -2.0635    0.0045 C.3       1 <0>        -0.1168
      5 C5         -2.8479   -2.5931    0.0153 C.3       1 <0>         0.0630
      6 O1         -2.8286   -4.0219    0.0075 O.3       1 <0>        -0.3670
      7 C6         -4.1260   -4.6208    0.0166 C.3       1 <0>         0.2296
      8 H1         -4.7110   -4.2336   -0.8175 H         1 <0>         0.0597
      9 C7         -3.9881   -6.1396   -0.1181 C.3       1 <0>         0.0613
     10 H2         -3.3691   -6.5225    0.6933 H         1 <0>         0.0880
     11 C8         -5.3783   -6.7789   -0.0469 C.3       1 <0>         0.0850
     12 H3         -5.9816   -6.4341   -0.8867 H         1 <0>         0.0742
     13 C9         -6.0494   -6.3705    1.2680 C.3       1 <0>         0.0883
     14 H4         -7.0606   -6.7758    1.3022 H         1 <0>         0.0840
     15 C10        -6.1076   -4.8428    1.3492 C.3       1 <0>         0.1098
     16 H5         -6.7188   -4.4584    0.5326 H         1 <0>         0.0839
     17 O2         -4.7854   -4.3107    1.2459 O.3       1 <0>        -0.3741
     18 C11        -6.7226   -4.4260    2.6867 C.3       1 <0>         0.0889
     19 O3         -6.8842   -3.0064    2.7149 O.3       1 <0>        -0.5671
     20 O4         -5.2933   -6.8799    2.3684 O.3       1 <0>        -0.5452
     21 O5         -5.2535   -8.2015   -0.1002 O.3       1 <0>        -0.5571
     22 O6         -3.3799   -6.4545   -1.3722 O.3       1 <0>        -0.5618
     23 C12         1.4167    2.0553   -0.0004 C.3       1 <0>        -0.1206
     24 C13         1.3960    3.5852    0.0080 C.3       1 <0>        -0.0935
     25 C14         2.8313    4.1148   -0.0029 C.3       1 <0>        -0.1840
     26 C15         2.8109    5.6216    0.0054 C.2       1 <0>         0.4873
     27 O7          1.7469    6.2168    0.0188 O.co2     1 <0>        -0.7001
     28 O8          3.8584    6.2455   -0.0012 O.co2     1 <0>        -0.7102
     29 H6         -0.5459    1.8868   -0.8726 H         1 <0>         0.0600
     30 H7         -0.5289    1.8773    0.9072 H         1 <0>         0.0604
     31 H8          0.5123   -0.3556   -0.8948 H         1 <0>         0.0603
     32 H9          0.5293   -0.3651    0.8851 H         1 <0>         0.0609
     33 H10        -1.9435   -0.1821    0.9097 H         1 <0>         0.0647
     34 H11        -1.9605   -0.1726   -0.8702 H         1 <0>         0.0631
     35 H12        -0.9024   -2.4150   -0.8923 H         1 <0>         0.0688
     36 H13        -0.8854   -2.4246    0.8875 H         1 <0>         0.0709
     37 H14        -3.3581   -2.2415    0.9121 H         1 <0>         0.0642
     38 H15        -3.3751   -2.2320   -0.8677 H         1 <0>         0.0498
     39 H16        -7.6947   -4.9047    2.8046 H         1 <0>         0.0639
     40 H17        -6.0653   -4.7330    3.5002 H         1 <0>         0.0689
     41 H18        -7.2700   -2.6707    3.5356 H         1 <0>         0.3844
     42 H19        -5.2121   -7.8434    2.3773 H         1 <0>         0.3876
     43 H20        -4.8303   -8.5293   -0.9055 H         1 <0>         0.3947
     44 H21        -2.4971   -6.0771   -1.4870 H         1 <0>         0.3950
     45 H22         1.9439    1.6943    0.8826 H         1 <0>         0.0542
     46 H23         1.9269    1.7038   -0.8972 H         1 <0>         0.0539
     47 H24         0.8688    3.9463   -0.8751 H         1 <0>         0.0570
     48 H25         0.8858    3.9367    0.9048 H         1 <0>         0.0572
     49 H26         3.3585    3.7537    0.8802 H         1 <0>         0.0541
     50 H27         3.3415    3.7632   -0.8997 H         1 <0>         0.0540
@<TRIPOS>BOND
     1    1    2 1
     2    1   23 1
     3    1   29 1
     4    1   30 1
     5    2    3 1
     6    2   31 1
     7    2   32 1
     8    3    4 1
     9    3   33 1
    10    3   34 1
    11    4    5 1
    12    4   35 1
    13    4   36 1
    14    5    6 1
    15    5   37 1
    16    5   38 1
    17    6    7 1
    18    7    8 1
    19    7   17 1
    20    7    9 1
    21    9   10 1
    22    9   11 1
    23    9   22 1
    24   11   12 1
    25   11   13 1
    26   11   21 1
    27   13   14 1
    28   13   15 1
    29   13   20 1
    30   15   16 1
    31   15   17 1
    32   15   18 1
    33   18   19 1
    34   18   39 1
    35   18   40 1
    36   19   41 1
    37   20   42 1
    38   21   43 1
    39   22   44 1
    40   23   24 1
    41   23   45 1
    42   23   46 1
    43   24   25 1
    44   24   47 1
    45   24   48 1
    46   25   26 1
    47   25   49 1
    48   25   50 1
    49   26   27 2
    50   26   28 1
@<TRIPOS>MOLECULE
ZINC44458852
   49    51     0     0     0
SMALL
USER_CHARGES

@<TRIPOS>ATOM
      1 C1          0.6453    1.4386    0.0294 C.3       1 <0>        -0.0344
      2 C2          0.4770   -0.0589    0.0211 C.2       1 <0>        -0.3694
      3 C3          0.4665   -0.8799   -1.1142 C.2       1 <0>         0.1194
      4 N1          0.3000   -2.1141   -0.7243 N.2       1 <0>        -0.3850
      5 O1          0.1978   -2.1195    0.6881 O.3       1 <0>        -0.1669
      6 C4          0.3147   -0.8504    1.1142 C.2       1 <0>         0.3954
      7 N2          0.2740   -0.4254    2.4291 N.2       1 <0>        -1.0221
      8 S1          0.0685   -1.5262    3.6491 S.o2      1 <0>         2.6098
      9 O2         -1.2375   -2.0645    3.4946 O.2       1 <0>        -1.0165
     10 O3          1.2322   -2.3416    3.6606 O.2       1 <0>        -1.0155
     11 C5          0.0672   -0.6290    5.1656 C.ar      1 <0>        -0.6284
     12 C6          1.2558   -0.4061    5.8363 C.ar      1 <0>        -0.0015
     13 C7          1.2582    0.2968    7.0252 C.ar      1 <0>        -0.1434
     14 C8          0.0653    0.7803    7.5466 C.ar      1 <0>         0.1769
     15 C9         -1.1265    0.5552    6.8703 C.ar      1 <0>        -0.1659
     16 C10        -1.1215   -0.1443    5.6795 C.ar      1 <0>        -0.0018
     17 N3          0.0643    1.4924    8.7511 N.am      1 <0>        -0.6667
     18 C11         1.1121    2.2775    9.0707 C.2       1 <0>         0.5073
     19 O4          2.0116    2.4425    8.2740 O.2       1 <0>        -0.5093
     20 C12         1.1662    2.9503   10.4181 C.3       1 <0>         0.1046
     21 N4          2.3951    3.7413   10.5200 N.am      1 <0>        -0.7146
     22 C13         2.6587    4.4351   11.6450 C.2       1 <0>         0.5839
     23 O5          1.8764    4.4044   12.5756 O.2       1 <0>        -0.5455
     24 C14         3.8956    5.2313   11.7475 C.2       1 <0>        -0.2544
     25 C15         4.8074    5.2755   10.6651 C.2       1 <0>         0.0020
     26 C16         5.9402    6.0177   10.7870 C.2       1 <0>        -0.2375
     27 C17         6.1815    6.7231   11.9810 C.2       1 <0>         0.5168
     28 O6          7.1960    7.3903   12.0952 O.2       1 <0>        -0.5380
     29 N5          5.3012    6.6674   12.9969 N.am      1 <0>        -0.5980
     30 H1          5.4820    7.1599   13.8127 H         1 <0>         0.4224
     31 C18         4.1708    5.9436   12.8969 C.2       1 <0>         0.2163
     32 C19         0.6206   -0.4172   -2.5401 C.3       1 <0>        -0.0732
     33 H2          1.7048    1.6848    0.1000 H         1 <0>         0.0360
     34 H3          0.2359    1.8554   -0.8909 H         1 <0>         0.0375
     35 H4          0.1169    1.8589    0.8851 H         1 <0>         0.0572
     36 H5          2.1831   -0.7823    5.4302 H         1 <0>         0.1422
     37 H6          2.1867    0.4700    7.5489 H         1 <0>         0.1384
     38 H7         -2.0559    0.9296    7.2735 H         1 <0>         0.1321
     39 H8         -2.0476   -0.3162    5.1509 H         1 <0>         0.1433
     40 H9         -0.6906    1.4211    9.3561 H         1 <0>         0.4154
     41 H10         0.3022    3.6050   10.5323 H         1 <0>         0.1067
     42 H11         1.1550    2.1938   11.2027 H         1 <0>         0.1078
     43 H12         3.0191    3.7658    9.7777 H         1 <0>         0.4135
     44 H13         4.6064    4.7275    9.7564 H         1 <0>         0.1423
     45 H14         6.6496    6.0653    9.9741 H         1 <0>         0.1578
     46 H15         3.4761    5.9170   13.7235 H         1 <0>         0.1834
     47 H16         1.6764   -0.4197   -2.8109 H         1 <0>         0.0756
     48 H17         0.0744   -1.0899   -3.2014 H         1 <0>         0.0676
     49 H18         0.2224    0.5925   -2.6395 H         1 <0>         0.0764
@<TRIPOS>BOND
     1    1    2 1
     2    1   33 1
     3    1   34 1
     4    1   35 1
     5    2    6 2
     6    2    3 1
     7    3    4 2
     8    3   32 1
     9    4    5 1
    10    5    6 1
    11    6    7 1
    12    7    8 1
    13    8    9 2
    14    8   10 2
    15    8   11 1
    16   11   16 ar
    17   11   12 ar
    18   12   13 ar
    19   12   36 1
    20   13   14 ar
    21   13   37 1
    22   14   15 ar
    23   14   17 1
    24   15   16 ar
    25   15   38 1
    26   16   39 1
    27   17   18 am
    28   17   40 1
    29   18   19 2
    30   18   20 1
    31   20   21 1
    32   20   41 1
    33   20   42 1
    34   21   22 am
    35   21   43 1
    36   22   23 2
    37   22   24 1
    38   24   31 2
    39   24   25 1
    40   25   26 2
    41   25   44 1
    42   26   27 1
    43   26   45 1
    44   27   28 2
    45   27   29 am
    46   29   30 1
    47   29   31 1
    48   31   46 1
    49   32   47 1
    50   32   48 1
    51   32   49 1
@<TRIPOS>MOLECULE
ZINC02251613
   40    41     0     0     0
SMALL
USER_CHARGES

@<TRIPOS>ATOM
      1 C1         -0.3072    1.6492   -0.5255 C.ar      1 <0>        -0.0822
      2 C2          0.8638    2.3820   -0.4880 C.ar      1 <0>        -0.1526
      3 C3          2.0677    1.7495   -0.2275 C.ar      1 <0>         0.0835
      4 C4          2.0967    0.3833   -0.0050 C.ar      1 <0>        -0.1543
      5 C5          0.9244   -0.3475   -0.0430 C.ar      1 <0>        -0.0865
      6 C6         -0.2770    0.2851   -0.3031 C.ar      1 <0>        -0.0759
      7 C7         -1.5547   -0.5130   -0.3442 C.3       1 <0>        -0.0928
      8 C8         -1.8004   -1.0092   -1.7705 C.3       1 <0>         0.1212
      9 N1         -3.0424   -1.7850   -1.8105 N.am      1 <0>        -0.5687
     10 C9         -3.0002   -3.1156   -1.5862 C.2       1 <0>         0.5847
     11 O1         -1.9477   -3.6802   -1.3512 O.2       1 <0>        -0.5616
     12 C10        -4.2686   -3.8616   -1.6347 C.2       1 <0>        -0.4395
     13 C11        -4.3139   -5.2265   -1.4161 C.2       1 <0>         0.3032
     14 N2         -5.5025   -5.8525   -1.3067 N.pl3     1 <0>        -0.5291
     15 N3         -5.5508   -7.2138   -1.2048 N.3       1 <0>        -0.4525
     16 C12        -6.9380   -7.6848   -1.0960 C.3       1 <0>         0.0368
     17 C13        -6.9512   -9.2106   -0.9840 C.3       1 <0>         0.0859
     18 O2         -6.3216   -9.6041    0.2370 O.3       1 <0>        -0.5591
     19 C14        -5.4906   -3.0852   -1.9270 C.2       1 <0>         0.5588
     20 N4         -5.3728   -1.7623   -2.1284 N.2       1 <0>        -0.6796
     21 C15        -4.2161   -1.1516   -2.0671 C.2       1 <0>         0.6389
     22 O3         -4.1879    0.1790   -2.2760 O.3       1 <0>        -0.6685
     23 O4         -6.5793   -3.6315   -1.9844 O.2       1 <0>        -0.5887
     24 F1          3.2131    2.4649   -0.1911 F         1 <0>        -0.1463
     25 H1         -1.2469    2.1430   -0.7242 H         1 <0>         0.1380
     26 H2          0.8400    3.4476   -0.6621 H         1 <0>         0.1327
     27 H3          3.0352   -0.1112    0.1979 H         1 <0>         0.1317
     28 H4          0.9468   -1.4133    0.1303 H         1 <0>         0.1341
     29 H5         -1.4716   -1.3668    0.3283 H         1 <0>         0.0737
     30 H6         -2.3869    0.1171   -0.0304 H         1 <0>         0.0826
     31 H7         -1.8834   -0.1554   -2.4430 H         1 <0>         0.0921
     32 H8         -0.9682   -1.6393   -2.0844 H         1 <0>         0.0777
     33 H9         -3.3968   -5.7908   -1.3330 H         1 <0>         0.1555
     34 H10        -6.3237   -5.3362   -1.3003 H         1 <0>         0.4262
     35 H11        -5.0802   -7.6515   -1.9826 H         1 <0>         0.3369
     36 H12        -7.4004   -7.2513   -0.2092 H         1 <0>         0.0952
     37 H13        -7.4954   -7.3807   -1.9819 H         1 <0>         0.0630
     38 H14        -7.9814   -9.5666   -0.9927 H         1 <0>         0.0596
     39 H15        -6.4107   -9.6415   -1.8268 H         1 <0>         0.0490
     40 H16        -6.2940  -10.5608    0.3748 H         1 <0>         0.3770
@<TRIPOS>BOND
     1    1    6 ar
     2    1    2 ar
     3    1   25 1
     4    2    3 ar
     5    2   26 1
     6    3    4 ar
     7    3   24 1
     8    4    5 ar
     9    4   27 1
    10    5    6 ar
    11    5   28 1
    12    6    7 1
    13    7    8 1
    14    7   29 1
    15    7   30 1
    16    8    9 1
    17    8   31 1
    18    8   32 1
    19    9   21 1
    20    9   10 am
    21   10   11 2
    22   10   12 1
    23   12   13 2
    24   12   19 1
    25   13   14 1
    26   13   33 1
    27   14   15 1
    28   14   34 1
    29   15   16 1
    30   15   35 1
    31   16   17 1
    32   16   36 1
    33   16   37 1
    34   17   18 1
    35   17   38 1
    36   17   39 1
    37   18   40 1
    38   19   20 1
    39   19   23 2
    40   20   21 2
    41   21   22 1
@<TRIPOS>MOLECULE
ZINC16900820
   35    36     0     0     0
SMALL
USER_CHARGES

@<TRIPOS>ATOM
      1 C1         -0.0221    1.7812    0.0118 C.2       1 <0>        -0.2568
      2 C2          1.3069    2.0517    0.0006 C.2       1 <0>         0.1375
      3 N1          2.1286    1.0194   -0.0128 N.2       1 <0>        -0.4531
      4 C3          1.6719   -0.2137   -0.0151 C.2       1 <0>         0.2031
      5 S1          0.0021   -0.0041    0.0020 S.3       1 <0>         0.1473
      6 N2          2.3951   -1.4051   -0.0288 N.am      1 <0>        -0.4661
      7 C4          3.7334   -1.4402   -0.0365 C.2       1 <0>         0.5125
      8 O1          4.4613   -0.4708   -0.0323 O.2       1 <0>        -0.3976
      9 C5          4.1935   -2.8816   -0.0508 C.3       1 <0>        -0.1244
     10 C6          2.8751   -3.6819   -0.0499 C.3       1 <0>        -0.0868
     11 H1          2.7950   -4.2900   -0.9510 H         1 <0>         0.1564
     12 C7          1.8087   -2.6086   -0.0296 C.2       1 <0>         0.5303
     13 O2          0.6129   -2.8070   -0.0185 O.2       1 <0>        -0.4513
     14 S2          2.7604   -4.7217    1.4321 S.3       1 <0>        -0.2108
     15 C8          1.2425   -5.6819    1.1780 C.3       1 <0>        -0.1092
     16 C9          1.0226   -6.6136    2.3715 C.3       1 <0>        -0.0274
     17 H2          1.9085   -7.2316    2.5180 H         1 <0>         0.1433
     18 C10        -0.1684   -7.4978    2.1059 C.2       1 <0>         0.4975
     19 O3         -0.1015   -8.3726    1.2593 O.co2     1 <0>        -0.6304
     20 O4         -1.1990   -7.3383    2.7375 O.co2     1 <0>        -0.6631
     21 N3          0.7788   -5.8133    3.5791 N.4       1 <0>        -0.6144
     22 C11         1.8220    3.4679    0.0028 C.3       1 <0>        -0.1259
     23 C12         2.7706    3.6556    1.1587 C.2       1 <0>         0.5011
     24 O5          3.0064    2.7255    1.9110 O.co2     1 <0>        -0.6778
     25 O6          3.3022    4.7374    1.3416 O.co2     1 <0>        -0.7045
     26 H3         -0.8630    2.4588    0.0273 H         1 <0>         0.1973
     27 H4          4.7692   -3.0916   -0.9522 H         1 <0>         0.1428
     28 H5          4.7792   -3.1062    0.8407 H         1 <0>         0.1354
     29 H6          0.3945   -5.0033    1.0858 H         1 <0>         0.1157
     30 H7          1.3350   -6.2736    0.2673 H         1 <0>         0.1329
     31 H8          1.5763   -5.2213    3.7569 H         1 <0>         0.4185
     32 H9         -0.0412   -5.2412    3.4435 H         1 <0>         0.4351
     33 H10         2.3455    3.6655   -0.9326 H         1 <0>         0.0793
     34 H11         0.9851    4.1588    0.1038 H         1 <0>         0.0796
     35 H12         0.6338   -6.4278    4.3662 H         1 <0>         0.4340
@<TRIPOS>BOND
     1    1    5 1
     2    1    2 2
     3    1   26 1
     4    2    3 1
     5    2   22 1
     6    3    4 2
     7    4    5 1
     8    4    6 1
     9    6   12 am
    10    6    7 am
    11    7    8 2
    12    7    9 1
    13    9   10 1
    14    9   27 1
    15    9   28 1
    16   10   11 1
    17   10   12 1
    18   10   14 1
    19   12   13 2
    20   14   15 1
    21   15   16 1
    22   15   29 1
    23   15   30 1
    24   16   17 1
    25   16   18 1
    26   16   21 1
    27   18   19 2
    28   18   20 1
    29   21   31 1
    30   21   32 1
    31   21   35 1
    32   22   23 1
    33   22   33 1
    34   22   34 1
    35   23   24 2
    36   23   25 1
@<TRIPOS>MOLECULE
ZINC13251823
   46    47     0     0     0
SMALL
USER_CHARGES
(2S)-4-[(4-methoxy-3-sulfamoyl-phenyl)amino]-2-methyl-4-oxo-2-phenyl-butanoic acid
@<TRIPOS>ATOM
      1 C1          2.3788    0.1371   -1.2729 C.3       1 <0>        -0.1275
      2 C2          2.4567    1.0021   -0.0133 C.3       1 <0>        -0.0623
      3 C3          1.2804    1.9802    0.0073 C.3       1 <0>        -0.1116
      4 C4         -0.0143    1.2089    0.0069 C.2       1 <0>         0.5056
      5 O1          0.0022   -0.0038   -0.0083 O.2       1 <0>        -0.4732
      6 N1         -1.1906    1.8667    0.0178 N.am      1 <0>        -0.6830
      7 C5         -2.3926    1.1543   -0.0861 C.ar      1 <0>         0.1051
      8 C6         -3.4691    1.7042   -0.7697 C.ar      1 <0>        -0.0553
      9 C7         -4.6514    0.9992   -0.8766 C.ar      1 <0>        -0.2103
     10 C8         -4.7681   -0.2532   -0.2910 C.ar      1 <0>         0.1987
     11 C9         -3.6952   -0.8005    0.3968 C.ar      1 <0>        -0.6866
     12 C10        -2.5099   -0.0990    0.4992 C.ar      1 <0>         0.0130
     13 S1         -3.8442   -2.3913    1.1396 S.o2      1 <0>         2.7037
     14 O2         -4.3898   -3.2523    0.1495 O.2       1 <0>        -0.9571
     15 O3         -2.6047   -2.6575    1.7815 O.2       1 <0>        -0.9466
     16 N2         -4.9808   -2.2677    2.3376 N.pl3     1 <0>        -1.2449
     17 O4         -5.9346   -0.9445   -0.3919 O.3       1 <0>        -0.3089
     18 C11        -6.9979   -0.3207   -1.1145 C.3       1 <0>         0.0268
     19 C12         3.7514    1.7734   -0.0129 C.ar      1 <0>        -0.0220
     20 C13         3.7325    3.1556   -0.0012 C.ar      1 <0>        -0.1291
     21 C14         4.9201    3.8630    0.0040 C.ar      1 <0>        -0.1222
     22 C15         6.1265    3.1884   -0.0130 C.ar      1 <0>        -0.1421
     23 C16         6.1454    1.8063   -0.0299 C.ar      1 <0>        -0.1188
     24 C17         4.9578    1.0988   -0.0299 C.ar      1 <0>        -0.1095
     25 C18         2.3975    0.1194    1.2067 C.2       1 <0>         0.4845
     26 O5          2.3027   -1.0786    1.0816 O.co2     1 <0>        -0.6109
     27 H1          2.4216    0.7755   -2.1553 H         1 <0>         0.0309
     28 H2          3.2168   -0.5597   -1.2875 H         1 <0>         0.0537
     29 H3          1.4424   -0.4208   -1.2732 H         1 <0>         0.0836
     30 H4          1.3232    2.6186   -0.8751 H         1 <0>         0.0870
     31 H5          1.3359    2.5964    0.9046 H         1 <0>         0.1044
     32 H6         -1.2050    2.8333    0.0977 H         1 <0>         0.4086
     33 H7         -3.3798    2.6809   -1.2218 H         1 <0>         0.1363
     34 H8         -5.4871    1.4247   -1.4124 H         1 <0>         0.1391
     35 H9         -1.6745   -0.5253    1.0348 H         1 <0>         0.1742
     36 H10        -5.5245   -3.0362    2.5714 H         1 <0>         0.4181
     37 H11        -5.1027   -1.4269    2.8056 H         1 <0>         0.4145
     38 H12        -7.2575    0.6236   -0.6359 H         1 <0>         0.0587
     39 H13        -6.6793   -0.1328   -2.1398 H         1 <0>         0.0600
     40 H14        -7.8682   -0.9771   -1.1190 H         1 <0>         0.1049
     41 H15         2.7899    3.6827    0.0075 H         1 <0>         0.1188
     42 H16         4.9053    4.9428    0.0169 H         1 <0>         0.1140
     43 H17         7.0543    3.7412   -0.0134 H         1 <0>         0.1127
     44 H18         7.0879    1.2792   -0.0436 H         1 <0>         0.1154
     45 H19         4.9726    0.0190   -0.0435 H         1 <0>         0.1197
     46 O6          2.4500    0.6641    2.4324 O.co2     1 <0>        -0.7703
@<TRIPOS>BOND
     1    1    2 1
     2    1   27 1
     3    1   28 1
     4    1   29 1
     5    2    3 1
     6    2   19 1
     7    2   25 1
     8    3    4 1
     9    3   30 1
    10    3   31 1
    11    4    5 2
    12    4    6 am
    13    6    7 1
    14    6   32 1
    15    7   12 ar
    16    7    8 ar
    17    8    9 ar
    18    8   33 1
    19    9   10 ar
    20    9   34 1
    21   10   11 ar
    22   10   17 1
    23   11   12 ar
    24   11   13 1
    25   12   35 1
    26   13   14 2
    27   13   15 2
    28   13   16 1
    29   16   36 1
    30   16   37 1
    31   17   18 1
    32   18   38 1
    33   18   39 1
    34   18   40 1
    35   19   24 ar
    36   19   20 ar
    37   20   21 ar
    38   20   41 1
    39   21   22 ar
    40   21   42 1
    41   22   23 ar
    42   22   43 1
    43   23   24 ar
    44   23   44 1
    45   24   45 1
    46   25   26 2
    47   25   46 1
@<TRIPOS>MOLECULE
ZINC35644793
   52    54     0     0     0
SMALL
USER_CHARGES

@<TRIPOS>ATOM
      1 C1          0.1837    2.1782   -0.7349 C.3       1 <0>        -0.1378
      2 C2         -0.1197    0.6957   -0.5090 C.3       1 <0>        -0.0423
      3 H1         -1.1874    0.5193   -0.6394 H         1 <0>         0.1169
      4 C3          0.6514   -0.1323   -1.5045 C.ar      1 <0>        -0.0860
      5 C4          2.0343   -0.0771   -1.5244 C.ar      1 <0>        -0.0498
      6 C5          2.7503   -0.8339   -2.4350 C.ar      1 <0>        -0.1322
      7 C6          2.0894   -1.6493   -3.3300 C.ar      1 <0>        -0.0557
      8 C7          0.6941   -1.7103   -3.3152 C.ar      1 <0>        -0.1665
      9 C8         -0.0221   -0.9474   -2.3896 C.ar      1 <0>        -0.0655
     10 C9         -0.0208   -2.5813   -4.2707 C.2       1 <0>         0.4436
     11 O1          0.6029   -3.3486   -4.9776 O.2       1 <0>        -0.4504
     12 C10        -1.4938   -2.5197   -4.3670 C.ar      1 <0>        -0.1557
     13 C11        -2.1594   -1.3068   -4.1748 C.ar      1 <0>        -0.0860
     14 C12        -3.5346   -1.2565   -4.2666 C.ar      1 <0>        -0.1278
     15 C13        -4.2550   -2.4041   -4.5480 C.ar      1 <0>        -0.0927
     16 C14        -3.6022   -3.6092   -4.7395 C.ar      1 <0>        -0.1269
     17 C15        -2.2269   -3.6730   -4.6564 C.ar      1 <0>        -0.0661
     18 C16         0.2866    0.3072    0.8893 C.2       1 <0>         0.4596
     19 O2          1.1171   -0.5537    1.0599 O.2       1 <0>        -0.4797
     20 O3         -0.2742    0.9175    1.9451 O.3       1 <0>        -0.3441
     21 C17         0.1582    0.4993    3.2413 C.3       1 <0>         0.2206
     22 H2          1.2426    0.5870    3.3086 H         1 <0>         0.1013
     23 C18        -0.4928    1.3847    4.3070 C.3       1 <0>         0.0628
     24 H3         -0.1322    1.0925    5.2933 H         1 <0>         0.0992
     25 C19        -2.0133    1.2101    4.2455 C.3       1 <0>         0.1291
     26 H4         -2.4799    1.7949    5.0383 H         1 <0>         0.0697
     27 C20        -2.3541   -0.2714    4.4332 C.3       1 <0>         0.1011
     28 H5         -3.4305   -0.4128    4.3357 H         1 <0>         0.0810
     29 C21        -1.6312   -1.0929    3.3625 C.3       1 <0>        -0.0053
     30 H6         -1.9845   -0.7947    2.3754 H         1 <0>         0.0692
     31 O4         -0.2240   -0.8610    3.4553 O.3       1 <0>        -0.3266
     32 C22        -1.9145   -2.5575    3.5764 C.2       1 <0>         0.5021
     33 O5         -3.0495   -2.9840    3.4481 O.co2     1 <0>        -0.6872
     34 O6         -1.0087   -3.3160    3.8777 O.co2     1 <0>        -0.6628
     35 O7         -1.9320   -0.6980    5.7301 O.3       1 <0>        -0.5627
     36 O8         -2.4947    1.6561    2.9761 O.3       1 <0>        -0.5401
     37 O9         -0.1576    2.7520    4.0618 O.3       1 <0>        -0.5573
     38 H7          1.2515    2.3545   -0.6046 H         1 <0>         0.0602
     39 H8         -0.1101    2.4592   -1.7463 H         1 <0>         0.0714
     40 H9         -0.3740    2.7770   -0.0149 H         1 <0>         0.0777
     41 H10         2.5569    0.5599   -0.8262 H         1 <0>         0.1247
     42 H11         3.8292   -0.7857   -2.4452 H         1 <0>         0.1306
     43 H12         2.6494   -2.2389   -4.0406 H         1 <0>         0.1336
     44 H13        -1.1010   -0.9929   -2.3700 H         1 <0>         0.1401
     45 H14        -1.5985   -0.4106   -3.9544 H         1 <0>         0.1356
     46 H15        -4.0505   -0.3193   -4.1182 H         1 <0>         0.1307
     47 H16        -5.3318   -2.3591   -4.6180 H         1 <0>         0.1276
     48 H17        -4.1706   -4.5010   -4.9585 H         1 <0>         0.1295
     49 H18        -1.7183   -4.6132   -4.8105 H         1 <0>         0.1307
     50 H19        -2.1169   -1.6284    5.9176 H         1 <0>         0.3950
     51 H20        -2.3071    2.5861    2.7889 H         1 <0>         0.3834
     52 H21         0.7920    2.9338    4.0816 H         1 <0>         0.3803
@<TRIPOS>BOND
     1    1    2 1
     2    1   38 1
     3    1   39 1
     4    1   40 1
     5    2    3 1
     6    2    4 1
     7    2   18 1
     8    4    9 ar
     9    4    5 ar
    10    5    6 ar
    11    5   41 1
    12    6    7 ar
    13    6   42 1
    14    7    8 ar
    15    7   43 1
    16    8    9 ar
    17    8   10 1
    18    9   44 1
    19   10   11 2
    20   10   12 1
    21   12   17 ar
    22   12   13 ar
    23   13   14 ar
    24   13   45 1
    25   14   15 ar
    26   14   46 1
    27   15   16 ar
    28   15   47 1
    29   16   17 ar
    30   16   48 1
    31   17   49 1
    32   18   19 2
    33   18   20 1
    34   20   21 1
    35   21   22 1
    36   21   31 1
    37   21   23 1
    38   23   24 1
    39   23   25 1
    40   23   37 1
    41   25   26 1
    42   25   27 1
    43   25   36 1
    44   27   28 1
    45   27   29 1
    46   27   35 1
    47   29   30 1
    48   29   31 1
    49   29   32 1
    50   32   33 2
    51   32   34 1
    52   35   50 1
    53   36   51 1
    54   37   52 1
@<TRIPOS>MOLECULE
ZINC44169115
   52    54     0     0     0
SMALL
USER_CHARGES

@<TRIPOS>ATOM
      1 C1          0.1059    0.7764   -0.6172 C.3       1 <0>        -0.1443
      2 C2          0.3970   -0.7015   -0.3489 C.3       1 <0>        -0.0365
      3 H1         -0.5231   -1.2771   -0.4492 H         1 <0>         0.1156
      4 C3          0.9397   -0.8611    1.0479 C.ar      1 <0>        -0.0906
      5 C4          2.1066   -0.2128    1.4136 C.ar      1 <0>        -0.0450
      6 C5          2.6120   -0.3537    2.6939 C.ar      1 <0>        -0.1284
      7 C6          1.9549   -1.1424    3.6154 C.ar      1 <0>        -0.0539
      8 C7          0.7766   -1.7991    3.2535 C.ar      1 <0>        -0.1714
      9 C8          0.2693   -1.6482    1.9606 C.ar      1 <0>        -0.0691
     10 C9          0.0673   -2.6456    4.2349 C.2       1 <0>         0.4425
     11 O1          0.4288   -2.6639    5.3952 O.2       1 <0>        -0.4495
     12 C10        -1.0815   -3.4698    3.8059 C.ar      1 <0>        -0.1535
     13 C11        -1.1036   -4.0311    2.5270 C.ar      1 <0>        -0.0852
     14 C12        -2.1789   -4.7998    2.1333 C.ar      1 <0>        -0.1278
     15 C13        -3.2346   -5.0151    3.0019 C.ar      1 <0>        -0.0942
     16 C14        -3.2193   -4.4620    4.2704 C.ar      1 <0>        -0.1287
     17 C15        -2.1478   -3.6960    4.6794 C.ar      1 <0>        -0.0679
     18 C16         1.4134   -1.2018   -1.3428 C.2       1 <0>         0.4630
     19 O2          2.4699   -1.6427   -0.9565 O.2       1 <0>        -0.4703
     20 O3          1.1449   -1.1576   -2.6572 O.3       1 <0>        -0.3411
     21 C17         2.1537   -1.6485   -3.5423 C.3       1 <0>         0.2294
     22 H2          2.4175   -2.6684   -3.2627 H         1 <0>         0.0658
     23 C18         1.6239   -1.6336   -4.9786 C.3       1 <0>         0.0626
     24 H3          1.3218   -0.6207   -5.2449 H         1 <0>         0.0934
     25 C19         2.7306   -2.1039   -5.9276 C.3       1 <0>         0.1296
     26 H4          2.9983   -3.1342   -5.6932 H         1 <0>         0.0739
     27 C20         3.9566   -1.2029   -5.7508 C.3       1 <0>         0.1004
     28 H5          4.7683   -1.5642   -6.3823 H         1 <0>         0.0833
     29 C21         4.3963   -1.2344   -4.2847 C.3       1 <0>         0.0011
     30 H6          4.6896   -2.2490   -4.0149 H         1 <0>         0.0645
     31 O4          3.3115   -0.8155   -3.4541 O.3       1 <0>        -0.3424
     32 C22         5.5662   -0.3046   -4.0907 C.2       1 <0>         0.5083
     33 O5          5.4503    0.6816   -3.3832 O.co2     1 <0>        -0.6582
     34 O6          6.6286   -0.5384   -4.6413 O.co2     1 <0>        -0.6826
     35 O7          3.6228    0.1361   -6.1218 O.3       1 <0>        -0.5495
     36 O8          2.2681   -2.0254   -7.2774 O.3       1 <0>        -0.5420
     37 O9          0.5000   -2.5100   -5.0822 O.3       1 <0>        -0.5631
     38 H7          1.0261    1.3520   -0.5169 H         1 <0>         0.0688
     39 H8         -0.2865    0.8918   -1.6275 H         1 <0>         0.0765
     40 H9         -0.6292    1.1382    0.1017 H         1 <0>         0.0736
     41 H10         2.6253    0.4056    0.6961 H         1 <0>         0.1323
     42 H11         3.5232    0.1547    2.9724 H         1 <0>         0.1339
     43 H12         2.3508   -1.2521    4.6142 H         1 <0>         0.1339
     44 H13        -0.6435   -2.1499    1.6753 H         1 <0>         0.1384
     45 H14        -0.2807   -3.8632    1.8479 H         1 <0>         0.1366
     46 H15        -2.1973   -5.2344    1.1448 H         1 <0>         0.1307
     47 H16        -4.0744   -5.6172    2.6882 H         1 <0>         0.1271
     48 H17        -4.0467   -4.6338    4.9430 H         1 <0>         0.1288
     49 H18        -2.1350   -3.2687    5.6711 H         1 <0>         0.1305
     50 H19         4.3543    0.7625   -6.0344 H         1 <0>         0.3866
     51 H20         1.4884   -2.5680   -7.4582 H         1 <0>         0.3784
     52 H21        -0.2380   -2.2732   -4.5039 H         1 <0>         0.3858
@<TRIPOS>BOND
     1    1    2 1
     2    1   38 1
     3    1   39 1
     4    1   40 1
     5    2    3 1
     6    2    4 1
     7    2   18 1
     8    4    9 ar
     9    4    5 ar
    10    5    6 ar
    11    5   41 1
    12    6    7 ar
    13    6   42 1
    14    7    8 ar
    15    7   43 1
    16    8    9 ar
    17    8   10 1
    18    9   44 1
    19   10   11 2
    20   10   12 1
    21   12   17 ar
    22   12   13 ar
    23   13   14 ar
    24   13   45 1
    25   14   15 ar
    26   14   46 1
    27   15   16 ar
    28   15   47 1
    29   16   17 ar
    30   16   48 1
    31   17   49 1
    32   18   19 2
    33   18   20 1
    34   20   21 1
    35   21   22 1
    36   21   31 1
    37   21   23 1
    38   23   24 1
    39   23   25 1
    40   23   37 1
    41   25   26 1
    42   25   27 1
    43   25   36 1
    44   27   28 1
    45   27   29 1
    46   27   35 1
    47   29   30 1
    48   29   31 1
    49   29   32 1
    50   32   33 2
    51   32   34 1
    52   35   50 1
    53   36   51 1
    54   37   52 1
@<TRIPOS>MOLECULE
ZINC61963676
   45    46     0     0     0
SMALL
USER_CHARGES

@<TRIPOS>ATOM
      1 C1         -0.0225    1.8097    0.0120 C.3       1 <0>        -0.6364
      2 S1          0.0021   -0.0041    0.0020 S.o2      1 <0>         2.5243
      3 O1          0.8352   -0.4880    1.0465 O.2       1 <0>        -1.0311
      4 O2         -1.3147   -0.5105   -0.1678 O.2       1 <0>        -1.0311
      5 N1          0.7947   -0.4113   -1.3938 N.2       1 <0>        -1.0864
      6 C2          0.9920   -1.7554   -1.7182 C.ar      1 <0>         0.3017
      7 C3          0.5188   -2.7521   -0.8738 C.ar      1 <0>        -0.2589
      8 C4          0.7152   -4.0799   -1.1978 C.ar      1 <0>        -0.0615
      9 C5          1.3824   -4.4182   -2.3611 C.ar      1 <0>        -0.2329
     10 C6          1.8549   -3.4289   -3.2034 C.ar      1 <0>        -0.0580
     11 C7          1.6566   -2.0987   -2.8885 C.ar      1 <0>        -0.1911
     12 C8          2.1661   -1.0210   -3.8105 C.3       1 <0>         0.2168
     13 N2          3.4299   -0.4919   -3.2917 N.am      1 <0>        -0.7184
     14 C9          4.0738    0.4878   -3.9567 C.2       1 <0>         0.7022
     15 O3          3.6059    0.9324   -4.9871 O.2       1 <0>        -0.6054
     16 N3          5.2364    0.9746   -3.4794 N.am      1 <0>        -0.7487
     17 C10         5.9364    2.0394   -4.2022 C.3       1 <0>         0.1185
     18 C11         7.2190    2.4064   -3.4531 C.3       1 <0>         0.1393
     19 C12         7.9390    3.5018   -4.1966 C.ar      1 <0>        -0.1483
     20 C13         7.7492    4.8225   -3.8360 C.ar      1 <0>        -0.0805
     21 C14         8.4095    5.8274   -4.5177 C.ar      1 <0>        -0.1266
     22 C15         9.2605    5.5128   -5.5610 C.ar      1 <0>        -0.0903
     23 C16         9.4522    4.1932   -5.9231 C.ar      1 <0>        -0.1524
     24 C17         8.7953    3.1852   -5.2374 C.ar      1 <0>         0.1102
     25 F1          8.9855    1.8943   -5.5874 F         1 <0>        -0.1339
     26 O4          6.8898    2.8598   -2.1385 O.3       1 <0>        -0.5453
     27 H1          1.0001    2.1870    0.0043 H         1 <0>         0.1138
     28 H2         -0.5497    2.1708   -0.8711 H         1 <0>         0.1147
     29 H3         -0.5327    2.1613    0.9088 H         1 <0>         0.0996
     30 H4         -0.0016   -2.4886    0.0351 H         1 <0>         0.1012
     31 H5          0.3476   -4.8552   -0.5419 H         1 <0>         0.0996
     32 H6          1.5349   -5.4576   -2.6119 H         1 <0>         0.1003
     33 H7          2.3761   -3.6964   -4.1107 H         1 <0>         0.1039
     34 H8          2.3279   -1.4394   -4.8039 H         1 <0>         0.0478
     35 H9          1.4326   -0.2169   -3.8699 H         1 <0>         0.0752
     36 H10         3.8032   -0.8465   -2.4697 H         1 <0>         0.3954
     37 H11         5.6098    0.6199   -2.6574 H         1 <0>         0.3991
     38 H12         6.1875    1.6936   -5.2049 H         1 <0>         0.0730
     39 H13         5.2923    2.9161   -4.2709 H         1 <0>         0.0686
     40 H14         7.8631    1.5298   -3.3844 H         1 <0>         0.1181
     41 H15         7.0844    5.0695   -3.0214 H         1 <0>         0.1341
     42 H16         8.2602    6.8592   -4.2354 H         1 <0>         0.1317
     43 H17         9.7753    6.2989   -6.0935 H         1 <0>         0.1333
     44 H18        10.1167    3.9477   -6.7382 H         1 <0>         0.1370
     45 H19         6.3174    3.6391   -2.1231 H         1 <0>         0.3777
@<TRIPOS>BOND
     1    1    2 1
     2    1   27 1
     3    1   28 1
     4    1   29 1
     5    2    3 2
     6    2    4 2
     7    2    5 1
     8    5    6 1
     9    6   11 ar
    10    6    7 ar
    11    7    8 ar
    12    7   30 1
    13    8    9 ar
    14    8   31 1
    15    9   10 ar
    16    9   32 1
    17   10   11 ar
    18   10   33 1
    19   11   12 1
    20   12   13 1
    21   12   34 1
    22   12   35 1
    23   13   14 am
    24   13   36 1
    25   14   15 2
    26   14   16 am
    27   16   17 1
    28   16   37 1
    29   17   18 1
    30   17   38 1
    31   17   39 1
    32   18   19 1
    33   18   26 1
    34   18   40 1
    35   19   24 ar
    36   19   20 ar
    37   20   21 ar
    38   20   41 1
    39   21   22 ar
    40   21   42 1
    41   22   23 ar
    42   22   43 1
    43   23   24 ar
    44   23   44 1
    45   24   25 1
    46   26   45 1
@<TRIPOS>MOLECULE
ZINC65843737
   43    44     0     0     0
SMALL
USER_CHARGES

@<TRIPOS>ATOM
      1 C1          0.0026    1.5261    0.0213 C.3       1 <0>        -0.1422
      2 C2          0.0207   -0.0037    0.0116 C.3       1 <0>        -0.5980
      3 S1          0.8581   -0.5891   -1.4873 S.o2      1 <0>         2.5188
      4 O1          0.0810   -0.2776   -2.6355 O.2       1 <0>        -1.0284
      5 O2          2.2395   -0.2598   -1.4365 O.2       1 <0>        -1.0280
      6 N1          0.8134   -2.2411   -1.3822 N.2       1 <0>        -1.0412
      7 C3          1.3779   -3.0164   -2.3868 C.ar      1 <0>         0.3349
      8 C4          1.9861   -2.4096   -3.4789 C.ar      1 <0>        -0.2588
      9 C5          2.5460   -3.1819   -4.4755 C.ar      1 <0>        -0.0441
     10 C6          2.5072   -4.5653   -4.3970 C.ar      1 <0>        -0.2384
     11 C7          1.9084   -5.1850   -3.3224 C.ar      1 <0>        -0.0412
     12 C8          1.3421   -4.4169   -2.3014 C.ar      1 <0>        -0.2276
     13 C9          0.7058   -5.0735   -1.1452 C.2       1 <0>         0.5628
     14 O3          0.2098   -4.4014   -0.2613 O.2       1 <0>        -0.4799
     15 N2          0.6738   -6.4186   -1.0675 N.am      1 <0>        -0.6917
     16 C10         0.1576   -7.0411    0.0735 C.ar      1 <0>         0.1730
     17 C11         0.7164   -8.2270    0.5323 C.ar      1 <0>        -0.1566
     18 C12         0.2046   -8.8389    1.6597 C.ar      1 <0>        -0.0873
     19 C13        -0.8630   -8.2721    2.3316 C.ar      1 <0>        -0.1056
     20 C14        -1.4218   -7.0917    1.8771 C.ar      1 <0>        -0.0858
     21 C15        -0.9111   -6.4717    0.7537 C.ar      1 <0>        -0.1226
     22 C16        -1.4188   -8.9426    3.5614 C.3       1 <0>        -0.0941
     23 C17        -0.7014   -8.4270    4.7823 C.2       1 <0>         0.5114
     24 O4          0.1750   -7.5969    4.6652 O.2       1 <0>        -0.5243
     25 N3         -1.0337   -8.8885    6.0042 N.am      1 <0>        -0.8633
     26 H1          1.0258    1.9017    0.0066 H         1 <0>         0.0638
     27 H2         -0.5302    1.8888   -0.8578 H         1 <0>         0.0637
     28 H3         -0.5006    1.8778    0.9219 H         1 <0>         0.0684
     29 H4          0.5535   -0.3664    0.8906 H         1 <0>         0.1209
     30 H5         -1.0025   -0.3793    0.0263 H         1 <0>         0.1205
     31 H6          2.0202   -1.3324   -3.5478 H         1 <0>         0.1071
     32 H7          3.0173   -2.7056   -5.3225 H         1 <0>         0.1052
     33 H8          2.9486   -5.1604   -5.1827 H         1 <0>         0.1060
     34 H9          1.8807   -6.2632   -3.2666 H         1 <0>         0.1050
     35 H10         1.0088   -6.9550   -1.8031 H         1 <0>         0.4017
     36 H11         1.5499   -8.6703    0.0078 H         1 <0>         0.1215
     37 H12         0.6384   -9.7612    2.0168 H         1 <0>         0.1165
     38 H13        -2.2560   -6.6520    2.4037 H         1 <0>         0.1172
     39 H14        -1.3452   -5.5475    0.4018 H         1 <0>         0.1432
     40 H15        -2.4831   -8.7227    3.6455 H         1 <0>         0.0998
     41 H16        -1.2755  -10.0204    3.4838 H         1 <0>         0.0990
     42 H17        -1.7346   -9.5524    6.0978 H         1 <0>         0.3990
     43 H18        -0.5719   -8.5566    6.7901 H         1 <0>         0.3992
@<TRIPOS>BOND
     1    1    2 1
     2    1   26 1
     3    1   27 1
     4    1   28 1
     5    2    3 1
     6    2   29 1
     7    2   30 1
     8    3    4 2
     9    3    5 2
    10    3    6 1
    11    6    7 1
    12    7   12 ar
    13    7    8 ar
    14    8    9 ar
    15    8   31 1
    16    9   10 ar
    17    9   32 1
    18   10   11 ar
    19   10   33 1
    20   11   12 ar
    21   11   34 1
    22   12   13 1
    23   13   14 2
    24   13   15 am
    25   15   16 1
    26   15   35 1
    27   16   21 ar
    28   16   17 ar
    29   17   18 ar
    30   17   36 1
    31   18   19 ar
    32   18   37 1
    33   19   20 ar
    34   19   22 1
    35   20   21 ar
    36   20   38 1
    37   21   39 1
    38   22   23 1
    39   22   40 1
    40   22   41 1
    41   23   24 2
    42   23   25 am
    43   25   42 1
    44   25   43 1
@<TRIPOS>MOLECULE
ZINC08551820
   78    81     0     0     0
SMALL
USER_CHARGES
2-[4-(3,7-dihydroxy-10,13-dimethyl-2,3,4,5,6,7,8,9,11,12,14,15,16,17-tetradecahydro-1H-cyclopenta[a]phenanthren-17-yl)pentanoylamino]ethanesulfonic acid
@<TRIPOS>ATOM
      1 C1         -1.6934   -4.7832   -0.9504 C.3       1 <0>        -0.1573
      2 C2         -1.7664   -3.5743   -1.8854 C.3       1 <0>        -0.0890
      3 H1         -2.8086   -3.2907   -2.0318 H         1 <0>         0.0774
      4 C3         -1.1415   -3.9346   -3.2346 C.3       1 <0>        -0.1009
      5 C4         -1.9800   -5.0209   -3.9113 C.3       1 <0>        -0.1413
      6 C5         -1.3645   -5.3757   -5.2403 C.2       1 <0>         0.5038
      7 O1         -0.3545   -4.8151   -5.6098 O.2       1 <0>        -0.5427
      8 N1         -1.9363   -6.3162   -6.0181 N.am      1 <0>        -0.7253
      9 C6         -1.3379   -6.6612   -7.3101 C.3       1 <0>         0.1343
     10 C7         -2.1764   -7.7474   -7.9867 C.3       1 <0>        -0.6908
     11 S1         -1.4355   -8.1746   -9.5864 S.o2      1 <0>         2.6438
     12 O2         -1.5523   -7.0819  -10.4873 O.2       1 <0>        -1.0489
     13 O3         -0.1853   -8.8209   -9.3898 O.2       1 <0>        -1.0491
     14 C8         -1.0015   -2.4032   -1.2654 C.3       1 <0>        -0.0716
     15 H2          0.0201   -2.7027   -1.0314 H         1 <0>         0.0697
     16 C9         -0.9950   -1.2013   -2.2318 C.3       1 <0>        -0.1206
     17 C10        -1.6987   -0.0418   -1.4932 C.3       1 <0>        -0.1335
     18 C11        -1.5152   -0.3925    0.0131 C.3       1 <0>        -0.0680
     19 H3         -2.2350    0.1129    0.6569 H         1 <0>         0.0699
     20 C12        -1.7144   -1.9182    0.0036 C.3       1 <0>        -0.0494
     21 C13        -1.1976   -2.5909    1.2546 C.3       1 <0>        -0.1121
     22 C14         0.2583   -2.2123    1.5236 C.3       1 <0>        -0.1159
     23 C15         0.3256   -0.6892    1.6920 C.3       1 <0>        -0.0657
     24 H4         -0.3558   -0.3678    2.4797 H         1 <0>         0.0682
     25 C16        -0.0707   -0.0332    0.3718 C.3       1 <0>        -0.0626
     26 H5          0.5941   -0.3829   -0.4180 H         1 <0>         0.0837
     27 C17         0.0476    1.4882    0.4955 C.3       1 <0>         0.1067
     28 H6         -0.6146    1.8404    1.2864 H         1 <0>         0.0405
     29 C18         1.4903    1.8666    0.8335 C.3       1 <0>        -0.1561
     30 C19         1.8681    1.2164    2.1819 C.3       1 <0>        -0.0671
     31 H7          1.1903    1.5619    2.9625 H         1 <0>         0.0631
     32 C20         1.7631   -0.3043    2.0502 C.3       1 <0>        -0.0485
     33 C21         2.7090   -0.7860    0.9481 C.3       1 <0>        -0.1087
     34 C22         4.1484   -0.4038    1.3130 C.3       1 <0>        -0.1550
     35 C23         4.2535    1.1166    1.4470 C.3       1 <0>         0.1053
     36 H8          5.2767    1.3887    1.7058 H         1 <0>         0.0496
     37 C24         3.3042    1.5985    2.5460 C.3       1 <0>        -0.1099
     38 O4          3.8966    1.7300    0.2067 O.3       1 <0>        -0.5501
     39 C25         2.1508   -0.9591    3.3775 C.3       1 <0>        -0.1490
     40 O5         -0.3261    2.0964   -0.7424 O.3       1 <0>        -0.5540
     41 C26        -3.2065   -2.2226   -0.1449 C.3       1 <0>        -0.1489
     42 H9         -0.6496   -5.0262   -0.7515 H         1 <0>         0.0532
     43 H10        -2.1968   -4.5482   -0.0126 H         1 <0>         0.0632
     44 H11        -2.1818   -5.6365   -1.4210 H         1 <0>         0.0531
     45 H12        -1.1129   -3.0493   -3.8698 H         1 <0>         0.0740
     46 H13        -0.1275   -4.3028   -3.0786 H         1 <0>         0.0672
     47 H14        -2.0086   -5.9062   -3.2761 H         1 <0>         0.0918
     48 H15        -2.9940   -4.6527   -4.0673 H         1 <0>         0.0895
     49 H16        -2.7440   -6.7646   -5.7226 H         1 <0>         0.3996
     50 H17        -1.3093   -5.7758   -7.9452 H         1 <0>         0.0755
     51 H18        -0.3239   -7.0294   -7.1541 H         1 <0>         0.0753
     52 H19        -2.2050   -8.6327   -7.3516 H         1 <0>         0.1121
     53 H20        -3.1904   -7.3792   -8.1427 H         1 <0>         0.1122
     54 H21         0.0304   -0.9223   -2.4745 H         1 <0>         0.0584
     55 H22        -1.5397   -1.4508   -3.1424 H         1 <0>         0.0638
     56 H23        -2.7570   -0.0096   -1.7523 H         1 <0>         0.0507
     57 H24        -1.2177    0.9081   -1.7262 H         1 <0>         0.1067
     58 H25        -1.8091   -2.2850    2.1035 H         1 <0>         0.0563
     59 H26        -1.2685   -3.6720    1.1344 H         1 <0>         0.0680
     60 H27         0.6005   -2.6980    2.4375 H         1 <0>         0.0638
     61 H28         0.8799   -2.5285    0.6859 H         1 <0>         0.0690
     62 H29         2.1534    1.5142    0.0434 H         1 <0>         0.1212
     63 H30         1.5713    2.9501    0.9205 H         1 <0>         0.0518
     64 H31         2.6345   -1.8693    0.8533 H         1 <0>         0.0631
     65 H32         2.4332   -0.3187    0.0028 H         1 <0>         0.0761
     66 H33         4.8242   -0.7470    0.5296 H         1 <0>         0.0623
     67 H34         4.4215   -0.8716    2.2588 H         1 <0>         0.0721
     68 H35         3.3789    2.6817    2.6416 H         1 <0>         0.0651
     69 H36         3.5761    1.1304    3.4921 H         1 <0>         0.0761
     70 H37         4.4577    1.4696   -0.5366 H         1 <0>         0.3692
     71 H38         2.0776   -2.0426    3.2832 H         1 <0>         0.0586
     72 H39         3.1745   -0.6850    3.6326 H         1 <0>         0.0573
     73 H40         1.4766   -0.6164    4.1624 H         1 <0>         0.0517
     74 H41        -0.2750    3.0621   -0.7374 H         1 <0>         0.3655
     75 H42        -3.5567   -1.8606   -1.1115 H         1 <0>         0.0586
     76 H43        -3.3659   -3.2989   -0.0804 H         1 <0>         0.0616
     77 H44        -3.7598   -1.7250    0.6516 H         1 <0>         0.0445
     78 O6         -2.3432   -9.2518  -10.1627 O.3       1 <0>        -1.0822
@<TRIPOS>BOND
     1    1    2 1
     2    1   42 1
     3    1   43 1
     4    1   44 1
     5    2    3 1
     6    2    4 1
     7    2   14 1
     8    4    5 1
     9    4   45 1
    10    4   46 1
    11    5    6 1
    12    5   47 1
    13    5   48 1
    14    6    7 2
    15    6    8 am
    16    8    9 1
    17    8   49 1
    18    9   10 1
    19    9   50 1
    20    9   51 1
    21   10   11 1
    22   10   52 1
    23   10   53 1
    24   11   12 2
    25   11   13 2
    26   11   78 1
    27   14   15 1
    28   14   20 1
    29   14   16 1
    30   16   17 1
    31   16   54 1
    32   16   55 1
    33   17   18 1
    34   17   56 1
    35   17   57 1
    36   18   19 1
    37   18   25 1
    38   18   20 1
    39   20   21 1
    40   20   41 1
    41   21   22 1
    42   21   58 1
    43   21   59 1
    44   22   23 1
    45   22   60 1
    46   22   61 1
    47   23   24 1
    48   23   32 1
    49   23   25 1
    50   25   26 1
    51   25   27 1
    52   27   28 1
    53   27   29 1
    54   27   40 1
    55   29   30 1
    56   29   62 1
    57   29   63 1
    58   30   31 1
    59   30   37 1
    60   30   32 1
    61   32   33 1
    62   32   39 1
    63   33   34 1
    64   33   64 1
    65   33   65 1
    66   34   35 1
    67   34   66 1
    68   34   67 1
    69   35   36 1
    70   35   37 1
    71   35   38 1
    72   37   68 1
    73   37   69 1
    74   38   70 1
    75   39   71 1
    76   39   72 1
    77   39   73 1
    78   40   74 1
    79   41   75 1
    80   41   76 1
    81   41   77 1
@<TRIPOS>MOLECULE
ZINC19045976
   65    66     0     0     0
SMALL
USER_CHARGES
(3R,5S)-7-[(1S,2S,6S,8S,8aR)-6-hydroxy-2-methyl-8-[(2S)-2-methylbutanoyl]oxy-1,2,6,7,8,8a-hexahydronaphthalen-1-yl]-3,5-dihydroxy-heptanoic acid
@<TRIPOS>ATOM
      1 C1         -1.2543    9.8869    0.1228 C.3       1 <0>        -0.1553
      2 C2         -1.2473    8.4986    0.7658 C.3       1 <0>        -0.1095
      3 C3         -0.4615    7.5300   -0.1204 C.3       1 <0>        -0.0845
      4 H1          0.5515    7.9213   -0.2958 H         1 <0>         0.1171
      5 C4         -1.1895    7.3545   -1.4546 C.3       1 <0>        -0.1413
      6 C5         -0.3497    6.1953    0.5703 C.2       1 <0>         0.4499
      7 O1         -0.8474    6.0352    1.6596 O.2       1 <0>        -0.5104
      8 O2          0.3029    5.1844   -0.0246 O.3       1 <0>        -0.3190
      9 C6          0.3711    3.9273    0.6989 C.3       1 <0>         0.0931
     10 H2          0.3930    4.1452    1.7769 H         1 <0>         0.0928
     11 C7         -0.8664    3.0957    0.3681 C.3       1 <0>        -0.1260
     12 C8         -0.7752    1.7664    1.1239 C.3       1 <0>         0.1535
     13 H3         -1.6720    1.1421    0.9977 H         1 <0>         0.0631
     14 C9          0.4621    1.0482    0.6506 C.2       1 <0>        -0.2041
     15 C10         1.5333    1.7182    0.2682 C.2       1 <0>        -0.0422
     16 C11         1.6478    3.2128    0.3235 C.3       1 <0>        -0.0454
     17 H4          2.3286    3.4518    1.1538 H         1 <0>         0.0848
     18 C12         2.2018    3.6990   -1.0176 C.3       1 <0>        -0.0589
     19 H5          1.5404    3.3776   -1.8357 H         1 <0>         0.0736
     20 C13         3.5989    3.1083   -1.2144 C.3       1 <0>        -0.0667
     21 H6          3.9075    3.2712   -2.2576 H         1 <0>         0.0852
     22 C14         3.6117    1.6285   -0.9799 C.2       1 <0>        -0.1248
     23 C15         2.6833    0.9777   -0.3005 C.2       1 <0>        -0.1409
     24 C16         4.5661    3.7772   -0.2356 C.3       1 <0>        -0.1544
     25 C17         2.2864    5.2267   -1.0145 C.3       1 <0>        -0.1124
     26 C18         3.2661    5.6855   -2.0963 C.3       1 <0>        -0.1258
     27 C19         3.3507    7.2132   -2.0932 C.3       1 <0>         0.1235
     28 H7          3.5553    7.5993   -1.0837 H         1 <0>         0.0545
     29 C20         4.4210    7.6668   -3.0879 C.3       1 <0>        -0.1430
     30 C21         4.5933    9.1842   -2.9950 C.3       1 <0>         0.1366
     31 H8          3.6263    9.7014   -3.0811 H         1 <0>         0.0471
     32 C22         5.5714    9.6534   -4.0739 C.3       1 <0>        -0.1917
     33 C23         5.6473   11.1585   -4.0629 C.2       1 <0>         0.4627
     34 O3          4.9869   11.7909   -3.2731 O.co2     1 <0>        -0.6447
     35 O4          6.4486   11.7964   -4.9304 O.co2     1 <0>        -0.7709
     36 O5          5.1055    9.5275   -1.7059 O.3       1 <0>        -0.6116
     37 O6          2.0862    7.7610   -2.4713 O.3       1 <0>        -0.5988
     38 O7         -0.6818    2.0182    2.5274 O.3       1 <0>        -0.5896
     39 H9         -1.8193   10.5832    0.7600 H         1 <0>         0.0565
     40 H10        -1.7285    9.8296   -0.8681 H         1 <0>         0.0600
     41 H11        -0.2202   10.2459    0.0143 H         1 <0>         0.0610
     42 H12        -0.7731    8.5559    1.7567 H         1 <0>         0.0688
     43 H13        -2.2814    8.1396    0.8744 H         1 <0>         0.0659
     44 H14        -0.6246    6.6581   -2.0917 H         1 <0>         0.0741
     45 H15        -1.2711    8.3288   -1.9587 H         1 <0>         0.0745
     46 H16        -2.1963    6.9504   -1.2726 H         1 <0>         0.0509
     47 H17        -1.7692    3.6425    0.6780 H         1 <0>         0.0768
     48 H18        -0.9043    2.9096   -0.7154 H         1 <0>         0.0869
     49 H19         0.4636   -0.0515    0.6267 H         1 <0>         0.1158
     50 H20         4.4610    1.0807   -1.4141 H         1 <0>         0.1097
     51 H21         2.7663   -0.1100   -0.1590 H         1 <0>         0.1198
     52 H22         5.5737    3.3573   -0.3712 H         1 <0>         0.0541
     53 H23         4.2287    3.5951    0.7954 H         1 <0>         0.0550
     54 H24         4.5912    4.8601   -0.4273 H         1 <0>         0.0790
     55 H25         1.2914    5.6494   -1.2178 H         1 <0>         0.1197
     56 H26         2.6377    5.5725   -0.0311 H         1 <0>         0.0526
     57 H27         4.2611    5.2628   -1.8930 H         1 <0>         0.0821
     58 H28         2.9148    5.3397   -3.0797 H         1 <0>         0.0646
     59 H29         5.3752    7.1742   -2.8497 H         1 <0>         0.0693
     60 H30         4.1124    7.3946   -4.1080 H         1 <0>         0.0762
     61 H31         6.5683    9.2345   -3.8722 H         1 <0>         0.0703
     62 H32         5.2223    9.3110   -5.0593 H         1 <0>         0.0686
     63 H33         5.2957   10.5808   -1.4523 H         1 <0>         0.4158
     64 H34         1.9534    8.8516   -2.5257 H         1 <0>         0.4013
     65 H35        -0.6078    1.1778    3.2332 H         1 <0>         0.4047
@<TRIPOS>BOND
     1    1    2 1
     2    1   39 1
     3    1   40 1
     4    1   41 1
     5    2    3 1
     6    2   42 1
     7    2   43 1
     8    3    4 1
     9    3    5 1
    10    3    6 1
    11    5   44 1
    12    5   45 1
    13    5   46 1
    14    6    7 2
    15    6    8 1
    16    8    9 1
    17    9   10 1
    18    9   16 1
    19    9   11 1
    20   11   12 1
    21   11   47 1
    22   11   48 1
    23   12   13 1
    24   12   14 1
    25   12   38 1
    26   14   15 2
    27   14   49 1
    28   15   23 1
    29   15   16 1
    30   16   17 1
    31   16   18 1
    32   18   19 1
    33   18   20 1
    34   18   25 1
    35   20   21 1
    36   20   22 1
    37   20   24 1
    38   22   23 2
    39   22   50 1
    40   23   51 1
    41   24   52 1
    42   24   53 1
    43   24   54 1
    44   25   26 1
    45   25   55 1
    46   25   56 1
    47   26   27 1
    48   26   57 1
    49   26   58 1
    50   27   28 1
    51   27   29 1
    52   27   37 1
    53   29   30 1
    54   29   59 1
    55   29   60 1
    56   30   31 1
    57   30   32 1
    58   30   36 1
    59   32   33 1
    60   32   61 1
    61   32   62 1
    62   33   34 2
    63   33   35 1
    64   36   63 1
    65   37   64 1
    66   38   65 1
@<TRIPOS>MOLECULE
ZINC03830449
   44    46     0     0     0
SMALL
USER_CHARGES

@<TRIPOS>ATOM
      1 C1          0.0251    1.4314   -0.1412 C.3       1 <0>         0.0237
      2 O1          0.0348    0.0027   -0.1111 O.3       1 <0>        -0.3558
      3 C2         -1.2665   -0.5866   -0.0716 C.3       1 <0>         0.3139
      4 C3         -1.2359   -2.1003    0.0595 C.3       1 <0>         0.1426
      5 H1         -0.2567   -2.5687   -0.0398 H         1 <0>         0.1424
      6 N1         -2.0805   -2.0429   -1.1711 N.am      1 <0>        -0.5270
      7 C4         -1.8939   -0.7411   -1.4390 C.2       1 <0>         0.5461
      8 O2         -2.1282   -0.0053   -2.3744 O.2       1 <0>        -0.4347
      9 C5         -2.8939   -3.0824   -1.6690 C.2       1 <0>         0.1128
     10 C6         -3.2747   -4.0735   -0.8778 C.2       1 <0>        -0.1826
     11 C7         -2.9169   -4.3113    0.5532 C.3       1 <0>         0.0033
     12 S1         -2.2899   -2.7964    1.3764 S.3       1 <0>        -0.2355
     13 C8         -4.1893   -5.0955   -1.5025 C.3       1 <0>         0.1615
     14 O3         -4.6054   -6.0334   -0.5079 O.3       1 <0>        -0.3839
     15 C9         -5.3477   -7.0767   -0.9241 C.2       1 <0>         0.6472
     16 O4         -5.6343   -7.1878   -2.0997 O.2       1 <0>        -0.5638
     17 N2         -5.7728   -7.9979   -0.0369 N.am      1 <0>        -0.8355
     18 C10        -3.3225   -3.0649   -3.0770 C.2       1 <0>         0.5172
     19 O5         -3.9378   -4.0152   -3.5410 O.co2     1 <0>        -0.6607
     20 O6         -3.0634   -2.1001   -3.7834 O.co2     1 <0>        -0.6508
     21 N3         -2.1493    0.0639    0.8999 N.am      1 <0>        -0.7292
     22 C11        -3.4624   -0.2386    0.9253 C.2       1 <0>         0.5103
     23 O7         -3.9132   -1.0494    0.1441 O.2       1 <0>        -0.4579
     24 C12        -4.3706    0.4305    1.9246 C.3       1 <0>        -0.0442
     25 C13        -5.7774   -0.0789    1.7448 C.2       1 <0>        -0.1240
     26 C14        -6.3848   -1.1358    2.3375 C.2       1 <0>        -0.1397
     27 C15        -7.6990   -1.4200    2.0169 C.2       1 <0>        -0.1543
     28 C16        -8.3416   -0.6333    1.1193 C.2       1 <0>        -0.1765
     29 S2         -7.0789    0.5577    0.7017 S.3       1 <0>         0.0472
     30 H2          1.0500    1.8011   -0.1703 H         1 <0>         0.0983
     31 H3         -0.5096    1.7725   -1.0277 H         1 <0>         0.0594
     32 H4         -0.4726    1.8102    0.7515 H         1 <0>         0.0468
     33 H5         -3.7992   -4.6671    1.0852 H         1 <0>         0.1189
     34 H6         -2.1419   -5.0761    0.6028 H         1 <0>         0.0873
     35 H7         -5.0637   -4.5947   -1.9180 H         1 <0>         0.0924
     36 H8         -3.6590   -5.6200   -2.2973 H         1 <0>         0.0959
     37 H9         -5.5440   -7.9092    0.9016 H         1 <0>         0.4028
     38 H10        -6.3075   -8.7496   -0.3368 H         1 <0>         0.4200
     39 H11        -1.7888    0.7123    1.5247 H         1 <0>         0.4041
     40 H12        -4.0287    0.2046    2.9346 H         1 <0>         0.1155
     41 H13        -4.3518    1.5090    1.7674 H         1 <0>         0.1047
     42 H14        -5.8499   -1.7469    3.0493 H         1 <0>         0.1296
     43 H15        -8.2062   -2.2564    2.4746 H         1 <0>         0.1299
     44 H16        -9.3555   -0.7058    0.7545 H         1 <0>         0.1824
@<TRIPOS>BOND
     1    1    2 1
     2    1   30 1
     3    1   31 1
     4    1   32 1
     5    2    3 1
     6    3    7 1
     7    3    4 1
     8    3   21 1
     9    4    5 1
    10    4   12 1
    11    4    6 1
    12    6    7 am
    13    6    9 1
    14    7    8 2
    15    9   10 2
    16    9   18 1
    17   10   11 1
    18   10   13 1
    19   11   12 1
    20   11   33 1
    21   11   34 1
    22   13   14 1
    23   13   35 1
    24   13   36 1
    25   14   15 1
    26   15   16 2
    27   15   17 am
    28   17   37 1
    29   17   38 1
    30   18   19 2
    31   18   20 1
    32   21   22 am
    33   21   39 1
    34   22   23 2
    35   22   24 1
    36   24   25 1
    37   24   40 1
    38   24   41 1
    39   25   29 1
    40   25   26 2
    41   26   27 1
    42   26   42 1
    43   27   28 2
    44   27   43 1
    45   28   29 1
    46   28   44 1
@<TRIPOS>MOLECULE
ZINC06330559
   36    37     0     0     0
SMALL
USER_CHARGES

@<TRIPOS>ATOM
      1 C1         -0.0178    1.4608    0.0101 C.3       1 <0>         0.0940
      2 N1          0.0021   -0.0041    0.0020 N.pl3     1 <0>        -0.6932
      3 C2         -1.1558   -0.6938    0.0094 C.2       1 <0>         0.5630
      4 S1         -2.6499    0.1420    0.0281 S.2       1 <0>        -0.6328
      5 N2         -1.1375   -2.0414    0.0020 N.pl3     1 <0>        -0.4553
      6 N3          0.0851   -2.7253   -0.0134 N.am      1 <0>        -0.5680
      7 C3          0.1034   -4.0729   -0.0208 C.2       1 <0>         0.5702
      8 O1         -0.9414   -4.6952   -0.0142 O.2       1 <0>        -0.4785
      9 C4          1.3900   -4.7926   -0.0370 C.ar      1 <0>        -0.2179
     10 C5          2.5931   -4.0819   -0.0388 C.ar      1 <0>        -0.0399
     11 C6          3.7919   -4.7603   -0.0534 C.ar      1 <0>        -0.2315
     12 C7          3.8124   -6.1461   -0.0668 C.ar      1 <0>        -0.0349
     13 C8          2.6333   -6.8623   -0.0652 C.ar      1 <0>        -0.2618
     14 C9          1.4141   -6.1958   -0.0447 C.ar      1 <0>         0.3358
     15 N4          0.2258   -6.9145   -0.0373 N.2       1 <0>        -1.0311
     16 S2          0.2593   -8.5701   -0.0465 S.o2      1 <0>         2.6294
     17 O2          0.8064   -8.9583   -1.2992 O.2       1 <0>        -1.0180
     18 O3          0.8300   -8.9716    1.1913 O.2       1 <0>        -1.0182
     19 C10        -1.4130   -9.1251   -0.0336 C.2       1 <0>        -0.6699
     20 C11        -2.2313   -9.3936   -1.0803 C.2       1 <0>        -0.0403
     21 C12        -3.5210   -9.8232   -0.8298 C.2       1 <0>        -0.1809
     22 C13        -3.9293   -9.9632    0.4551 C.2       1 <0>        -0.1661
     23 S3         -2.4666   -9.4873    1.3613 S.3       1 <0>         0.1437
     24 H1          1.0048    1.8381    0.0023 H         1 <0>         0.0805
     25 H2         -0.5450    1.8219   -0.8730 H         1 <0>         0.0794
     26 H3         -0.5280    1.8123    0.9069 H         1 <0>         0.0795
     27 H4          0.8486   -0.4776   -0.0086 H         1 <0>         0.3944
     28 H5         -1.9709   -2.5378    0.0072 H         1 <0>         0.4581
     29 H6          0.9184   -2.2289   -0.0187 H         1 <0>         0.4103
     30 H7          2.5831   -3.0020   -0.0291 H         1 <0>         0.1026
     31 H8          4.7208   -4.2093   -0.0548 H         1 <0>         0.1112
     32 H9          4.7575   -6.6687   -0.0790 H         1 <0>         0.1112
     33 H10         2.6578   -7.9419   -0.0761 H         1 <0>         0.1069
     34 H11        -1.8810   -9.2734   -2.0948 H         1 <0>         0.1423
     35 H12        -4.1935  -10.0436   -1.6457 H         1 <0>         0.1369
     36 H13        -4.8891  -10.2835    0.8327 H         1 <0>         0.1889
@<TRIPOS>BOND
     1    1    2 1
     2    1   24 1
     3    1   25 1
     4    1   26 1
     5    2    3 1
     6    2   27 1
     7    3    4 2
     8    3    5 1
     9    5    6 1
    10    5   28 1
    11    6    7 am
    12    6   29 1
    13    7    8 2
    14    7    9 1
    15    9   14 ar
    16    9   10 ar
    17   10   11 ar
    18   10   30 1
    19   11   12 ar
    20   11   31 1
    21   12   13 ar
    22   12   32 1
    23   13   14 ar
    24   13   33 1
    25   14   15 1
    26   15   16 1
    27   16   17 2
    28   16   18 2
    29   16   19 1
    30   19   23 1
    31   19   20 2
    32   20   21 1
    33   20   34 1
    34   21   22 2
    35   21   35 1
    36   22   23 1
    37   22   36 1
