@<TRIPOS>MOLECULE
1NJS-KEU
 60 61 0 0 0
SMALL
SF_CHARGES


@<TRIPOS>ATOM
1    O        72.8400   19.0450   38.0060  O.co2      1 SUBUNIT     -0.8720
2    C        74.1420   19.1610   37.8330  C.2        1 SUBUNIT      0.7651
3    O        74.9970   18.3170   38.1130  O.co2      1 SUBUNIT     -0.8720
4    C        74.4610   20.4780   37.2500  C.3        1 SUBUNIT     -0.0670
5    C        75.9560   20.7030   37.0350  C.3        1 SUBUNIT     -0.0704
6    C        76.2790   22.0330   36.4470  C.3        1 SUBUNIT      0.1747
7    N        75.5580   22.0070   35.1200  N.am       1 SUBUNIT     -0.5809
8    C        74.6150   22.9670   34.7900  C.2        1 SUBUNIT      0.6662
9    O        74.3110   23.8530   35.5570  O.2        1 SUBUNIT     -0.5487
10   C        74.0250   22.9100   33.4760  C.2        1 SUBUNIT     -0.0402
11   C        73.0940   24.0280   33.1320  C.2        1 SUBUNIT     -0.1086
12   C        72.5060   24.0940   31.8190  C.2        1 SUBUNIT     -0.1062
13   C        72.8640   22.9760   30.8200  C.2        1 SUBUNIT     -0.0411
14   C        73.7620   21.8770   31.2140  C.2        1 SUBUNIT     -0.1062
15   C        74.3460   21.8270   32.5030  C.2        1 SUBUNIT     -0.1086
16   C        72.3640   22.9160   29.2740  C.3        1 SUBUNIT     -0.0294
17   C        73.4310   22.2360   28.3980  C.3        1 SUBUNIT     -0.0727
18   C        74.4790   23.5450   28.1090  C.3        1 SUBUNIT     -0.0455
19   C        75.2560   23.5310   26.7410  C.2        1 SUBUNIT     -0.1242
20   C        76.5150   24.2100   27.1830  C.2        1 SUBUNIT     -0.0668
21   C        76.4070   25.5120   26.8780  C.2        1 SUBUNIT      0.6564
22   O        75.4060   26.2830   26.2700  O.2        1 SUBUNIT     -0.5564
23   N        77.5190   26.6430   27.1670  N.am       1 SUBUNIT     -0.6411
24   C        78.6530   26.2130   27.7690  C.2        1 SUBUNIT      0.5937
25   N        79.6460   27.0650   28.0610  N.pl3      1 SUBUNIT     -0.6940
26   N        78.7960   24.9900   28.0380  N.2        1 SUBUNIT     -0.5653
27   C        77.8090   23.9140   27.8210  C.2        1 SUBUNIT      0.4298
28   N        78.1340   22.6330   28.2050  N.2        1 SUBUNIT     -0.7207
29   C        70.9590   22.3460   28.8430  C.3        1 SUBUNIT      0.4817
30   O        70.4950   22.7470   27.8530  O.3        1 SUBUNIT     -0.5793
31   O        70.0730   23.1390   29.9110  O.3        1 SUBUNIT     -0.5793
32   C        70.5640   20.9330   29.3290  C.3        1 SUBUNIT      0.7212
33   F        70.6650   20.6050   30.6730  F          1 SUBUNIT     -0.2682
34   F        71.5150   20.2140   28.7430  F          1 SUBUNIT     -0.2682
35   F        69.3330   20.6340   28.8810  F          1 SUBUNIT     -0.2682
36   C        77.8240   22.3670   36.2490  C.2        1 SUBUNIT      0.7521
37   O        78.4540   22.7900   37.2050  O.co2      1 SUBUNIT     -0.8770
38   O        78.4420   22.1830   35.0300  O.co2      1 SUBUNIT     -0.8770
39   H        73.9485   20.5538   36.2853  H          1 SUBUNIT      0.0551
40   H        74.0801   21.2490   37.9278  H          1 SUBUNIT      0.0551
41   H        76.4665   20.6248   38.0006  H          1 SUBUNIT      0.0595
42   H        76.3347   19.9305   36.3577  H          1 SUBUNIT      0.0595
43   H        75.9306   22.8057   37.1402  H          1 SUBUNIT      0.0396
44   H        75.7369   21.2933   34.4310  H          1 SUBUNIT      0.3351
45   H        72.8514   24.7914   33.8504  H          1 SUBUNIT      0.1179
46   H        71.8452   24.9084   31.5784  H          1 SUBUNIT      0.1181
47   H        73.9919   21.0855   30.5223  H          1 SUBUNIT      0.1181
48   H        75.0047   21.0127   32.7495  H          1 SUBUNIT      0.1179
49   H        72.2158   23.9842   29.0845  H          1 SUBUNIT      0.0514
50   H        73.9158   21.4205   28.9447  H          1 SUBUNIT      0.0554
51   H        72.9825   21.8441   27.4791  H          1 SUBUNIT      0.0554
52   H        73.8989   24.4735   28.1284  H          1 SUBUNIT      0.0500
53   H        75.2378   23.5715   28.8981  H          1 SUBUNIT      0.0500
54   H        74.9854   23.1539   25.7702  H          1 SUBUNIT      0.0952
55   H        77.9813   27.2245   26.4856  H          1 SUBUNIT      0.3325
56   H        80.4836   26.7281   28.5093  H          1 SUBUNIT      0.3248
57   H        79.5550   28.0425   27.8322  H          1 SUBUNIT      0.3248
58   H        77.4820   21.8799   28.0508  H          1 SUBUNIT      0.3341
59   H        71.0568   23.4439   27.5062  H          1 SUBUNIT      0.3822
60   H        70.3081   24.0693   29.8807  H          1 SUBUNIT      0.3822
@<TRIPOS>BOND
     1    1    2 2
     2    2    3 1
     3    2    4 1
     4    4    5 1
     5    5    6 1
     6    6    7 1
     7    6   36 1
     8    7    8 1
     9    8    9 2
    10    8   10 1
    11   10   11 1
    12   10   15 2
    13   11   12 2
    14   12   13 1
    15   13   14 2
    16   13   16 1
    17   14   15 1
    18   16   17 1
    19   16   29 1
    20   17   18 1
    21   18   19 1
    22   19   20 2
    23   20   21 1
    24   20   27 1
    25   21   22 2
    26   21   23 1
    27   23   24 1
    28   24   25 1
    29   24   26 2
    30   26   27 1
    31   27   28 2
    32   29   30 1
    33   29   31 1
    34   29   32 1
    35   32   33 1
    36   32   34 1
    37   32   35 1
    38   36   37 2
    39   36   38 1
    40    4   39 1
    41    4   40 1
    42    5   41 1
    43    5   42 1
    44    6   43 1
    45    7   44 1
    46   11   45 1
    47   12   46 1
    48   14   47 1
    49   15   48 1
    50   16   49 1
    51   17   50 1
    52   17   51 1
    53   18   52 1
    54   18   53 1
    55   19   54 1
    56   23   55 1
    57   25   56 1
    58   25   57 1
    59   28   58 1
    60   30   59 1
    61   31   60 1
